/*---------------------------------------------------------------------------*\
  =========                 |
  \\      /  F ield         | OpenFOAM: The Open Source CFD Toolbox
   \\    /   O peration     | Website:  https://openfoam.org
    \\  /    A nd           | Version:  8
     \\/     M anipulation  |
\*---------------------------------------------------------------------------*/
Build  : 8-1c9b5879390b
Exec   : buoyantPimpleFoam
Date   : May 27 2021
Time   : 18:26:12
Host   : "vinicius-desktop"
PID    : 16693
I/O    : uncollated
Case   : /home/vinicius/OpenFOAM/vinicius-8/run/hotRoomBoussinesq
nProcs : 1
sigFpe : Enabling floating point exception trapping (FOAM_SIGFPE).
fileModificationChecking : Monitoring run-time modified files using timeStampMaster (fileModificationSkew 10)
allowSystemOperations : Allowing user-supplied system call operations

// * * * * * * * * * * * * * * * * * * * * * * * * * * * * * * * * * * * * * //
Create time

Create mesh for time = 0


PIMPLE: No convergence criteria found


PIMPLE: Operating solver in transient mode with 1 outer corrector
PIMPLE: Operating solver in PISO mode


Reading thermophysical properties

Selecting thermodynamics package 
{
    type            heRhoThermo;
    mixture         pureMixture;
    transport       const;
    thermo          eConst;
    equationOfState Boussinesq;
    specie          specie;
    energy          sensibleInternalEnergy;
}

Reading field U

Reading/calculating face flux field phi

Creating turbulence model

Selecting turbulence model type RAS
Selecting RAS turbulence model kEpsilon
RAS
{
    model           kEpsilon;
    turbulence      on;
    printCoeffs     on;
    Cmu             0.09;
    C1              1.44;
    C2              1.92;
    C3              0;
    sigmak          1;
    sigmaEps        1.3;
}

Creating thermophysical transport model

Selecting thermophysical transport type RAS
Selecting default RAS thermophysical transport model eddyDiffusivity

Reading g

Reading hRef
Calculating field g.h


Reading pRef
Reading field p_rgh

Creating field dpdt

Creating field kinetic energy K

No MRF models present

Radiation model not active: radiationProperties not found
Selecting radiationModel none
No finite volume options present
Courant Number mean: 0 max: 0

Starting time loop

Courant Number mean: 0 max: 0
Time = 2

diagonal:  Solving for rho, Initial residual = 0, Final residual = 0, No Iterations 0
DILUPBiCGStab:  Solving for Ux, Initial residual = 0, Final residual = 0, No Iterations 0
DILUPBiCGStab:  Solving for Uy, Initial residual = 1, Final residual = 6.3695e-07, No Iterations 4
DILUPBiCGStab:  Solving for Uz, Initial residual = 0, Final residual = 0, No Iterations 0
DILUPBiCGStab:  Solving for e, Initial residual = 1, Final residual = 9.4727e-09, No Iterations 1
DICPCG:  Solving for p_rgh, Initial residual = 0.961508, Final residual = 0.00917855, No Iterations 27
diagonal:  Solving for rho, Initial residual = 0, Final residual = 0, No Iterations 0
time step continuity errors : sum local = 0.14946, global = 0.00144674, cumulative = 0.00144674
DICPCG:  Solving for p_rgh, Initial residual = 0.783648, Final residual = 6.74145e-09, No Iterations 47
diagonal:  Solving for rho, Initial residual = 0, Final residual = 0, No Iterations 0
time step continuity errors : sum local = 0.00144685, global = 0.00144674, cumulative = 0.00289349
DILUPBiCGStab:  Solving for epsilon, Initial residual = 0.143409, Final residual = 5.0439e-07, No Iterations 4
DILUPBiCGStab:  Solving for k, Initial residual = 1, Final residual = 2.81047e-07, No Iterations 5
ExecutionTime = 0.08 s  ClockTime = 0 s

Courant Number mean: 2.67994 max: 11.3212
Time = 4

diagonal:  Solving for rho, Initial residual = 0, Final residual = 0, No Iterations 0
DILUPBiCGStab:  Solving for Ux, Initial residual = 0.59646, Final residual = 7.21414e-07, No Iterations 5
DILUPBiCGStab:  Solving for Uy, Initial residual = 0.674035, Final residual = 7.0221e-07, No Iterations 5
DILUPBiCGStab:  Solving for Uz, Initial residual = 0.59646, Final residual = 7.21414e-07, No Iterations 5
DILUPBiCGStab:  Solving for e, Initial residual = 0.514319, Final residual = 3.89285e-07, No Iterations 6
DICPCG:  Solving for p_rgh, Initial residual = 0.958591, Final residual = 0.00848616, No Iterations 8
diagonal:  Solving for rho, Initial residual = 0, Final residual = 0, No Iterations 0
time step continuity errors : sum local = 0.0540156, global = -0.000222706, cumulative = 0.00267078
DICPCG:  Solving for p_rgh, Initial residual = 0.68135, Final residual = 9.65944e-09, No Iterations 47
diagonal:  Solving for rho, Initial residual = 0, Final residual = 0, No Iterations 0
time step continuity errors : sum local = 0.000222746, global = -0.000222706, cumulative = 0.00244808
DILUPBiCGStab:  Solving for epsilon, Initial residual = 0.0758171, Final residual = 1.46817e-07, No Iterations 3
DILUPBiCGStab:  Solving for k, Initial residual = 0.288144, Final residual = 5.33816e-07, No Iterations 4
ExecutionTime = 0.09 s  ClockTime = 0 s

Courant Number mean: 2.16282 max: 9.50971
Time = 6

diagonal:  Solving for rho, Initial residual = 0, Final residual = 0, No Iterations 0
DILUPBiCGStab:  Solving for Ux, Initial residual = 0.272682, Final residual = 4.93466e-07, No Iterations 5
DILUPBiCGStab:  Solving for Uy, Initial residual = 0.620974, Final residual = 2.26942e-07, No Iterations 5
DILUPBiCGStab:  Solving for Uz, Initial residual = 0.272682, Final residual = 4.93466e-07, No Iterations 5
DILUPBiCGStab:  Solving for e, Initial residual = 0.326071, Final residual = 4.49838e-07, No Iterations 5
DICPCG:  Solving for p_rgh, Initial residual = 0.937207, Final residual = 0.00659305, No Iterations 27
diagonal:  Solving for rho, Initial residual = 0, Final residual = 0, No Iterations 0
time step continuity errors : sum local = 0.0160153, global = 5.85089e-05, cumulative = 0.00250659
DICPCG:  Solving for p_rgh, Initial residual = 0.671164, Final residual = 6.85406e-09, No Iterations 48
diagonal:  Solving for rho, Initial residual = 0, Final residual = 0, No Iterations 0
time step continuity errors : sum local = 5.85205e-05, global = 5.85089e-05, cumulative = 0.0025651
DILUPBiCGStab:  Solving for epsilon, Initial residual = 0.195561, Final residual = 2.98043e-07, No Iterations 3
DILUPBiCGStab:  Solving for k, Initial residual = 0.354549, Final residual = 5.11827e-07, No Iterations 4
ExecutionTime = 0.11 s  ClockTime = 0 s

Courant Number mean: 1.78945 max: 4.47791
Time = 8

diagonal:  Solving for rho, Initial residual = 0, Final residual = 0, No Iterations 0
DILUPBiCGStab:  Solving for Ux, Initial residual = 0.23587, Final residual = 2.76389e-07, No Iterations 5
DILUPBiCGStab:  Solving for Uy, Initial residual = 0.41458, Final residual = 6.6125e-07, No Iterations 5
DILUPBiCGStab:  Solving for Uz, Initial residual = 0.23587, Final residual = 2.76389e-07, No Iterations 5
DILUPBiCGStab:  Solving for e, Initial residual = 0.207959, Final residual = 1.71761e-07, No Iterations 5
DICPCG:  Solving for p_rgh, Initial residual = 0.888591, Final residual = 0.00730666, No Iterations 8
diagonal:  Solving for rho, Initial residual = 0, Final residual = 0, No Iterations 0
time step continuity errors : sum local = 0.00627864, global = -1.41512e-05, cumulative = 0.00255094
DICPCG:  Solving for p_rgh, Initial residual = 0.669784, Final residual = 8.21391e-09, No Iterations 47
diagonal:  Solving for rho, Initial residual = 0, Final residual = 0, No Iterations 0
time step continuity errors : sum local = 1.41549e-05, global = -1.41512e-05, cumulative = 0.00253679
DILUPBiCGStab:  Solving for epsilon, Initial residual = 0.219925, Final residual = 1.85398e-07, No Iterations 3
DILUPBiCGStab:  Solving for k, Initial residual = 0.345452, Final residual = 6.13434e-07, No Iterations 4
ExecutionTime = 0.12 s  ClockTime = 0 s

Courant Number mean: 1.5207 max: 3.43406
Time = 10

diagonal:  Solving for rho, Initial residual = 0, Final residual = 0, No Iterations 0
DILUPBiCGStab:  Solving for Ux, Initial residual = 0.100644, Final residual = 1.69994e-07, No Iterations 5
DILUPBiCGStab:  Solving for Uy, Initial residual = 0.163595, Final residual = 4.62299e-07, No Iterations 4
DILUPBiCGStab:  Solving for Uz, Initial residual = 0.100644, Final residual = 1.69994e-07, No Iterations 5
DILUPBiCGStab:  Solving for e, Initial residual = 0.167138, Final residual = 2.27141e-07, No Iterations 4
DICPCG:  Solving for p_rgh, Initial residual = 0.618075, Final residual = 0.00537635, No Iterations 28
diagonal:  Solving for rho, Initial residual = 0, Final residual = 0, No Iterations 0
time step continuity errors : sum local = 0.00111834, global = -6.45204e-07, cumulative = 0.00253615
DICPCG:  Solving for p_rgh, Initial residual = 0.411463, Final residual = 7.11213e-09, No Iterations 49
diagonal:  Solving for rho, Initial residual = 0, Final residual = 0, No Iterations 0
time step continuity errors : sum local = 6.46341e-07, global = -6.45204e-07, cumulative = 0.0025355
DILUPBiCGStab:  Solving for epsilon, Initial residual = 0.223835, Final residual = 1.65921e-07, No Iterations 3
DILUPBiCGStab:  Solving for k, Initial residual = 0.300369, Final residual = 3.92278e-07, No Iterations 4
ExecutionTime = 0.14 s  ClockTime = 0 s

Courant Number mean: 1.40503 max: 3.27557
Time = 12

diagonal:  Solving for rho, Initial residual = 0, Final residual = 0, No Iterations 0
DILUPBiCGStab:  Solving for Ux, Initial residual = 0.0576822, Final residual = 2.47274e-08, No Iterations 5
DILUPBiCGStab:  Solving for Uy, Initial residual = 0.0778865, Final residual = 2.46528e-07, No Iterations 4
DILUPBiCGStab:  Solving for Uz, Initial residual = 0.0576822, Final residual = 2.47274e-08, No Iterations 5
DILUPBiCGStab:  Solving for e, Initial residual = 0.132277, Final residual = 2.24241e-07, No Iterations 4
DICPCG:  Solving for p_rgh, Initial residual = 0.30398, Final residual = 0.00217789, No Iterations 13
diagonal:  Solving for rho, Initial residual = 0, Final residual = 0, No Iterations 0
time step continuity errors : sum local = 0.000365262, global = -2.38634e-06, cumulative = 0.00253312
DICPCG:  Solving for p_rgh, Initial residual = 0.155012, Final residual = 5.03708e-09, No Iterations 48
diagonal:  Solving for rho, Initial residual = 0, Final residual = 0, No Iterations 0
time step continuity errors : sum local = 2.38692e-06, global = -2.38634e-06, cumulative = 0.00253073
DILUPBiCGStab:  Solving for epsilon, Initial residual = 0.212984, Final residual = 1.22881e-07, No Iterations 3
DILUPBiCGStab:  Solving for k, Initial residual = 0.255518, Final residual = 2.21134e-07, No Iterations 4
ExecutionTime = 0.15 s  ClockTime = 0 s

Courant Number mean: 1.28844 max: 2.91428
Time = 14

diagonal:  Solving for rho, Initial residual = 0, Final residual = 0, No Iterations 0
DILUPBiCGStab:  Solving for Ux, Initial residual = 0.0496559, Final residual = 4.01257e-07, No Iterations 4
DILUPBiCGStab:  Solving for Uy, Initial residual = 0.0578859, Final residual = 4.19827e-07, No Iterations 4
DILUPBiCGStab:  Solving for Uz, Initial residual = 0.0496559, Final residual = 4.01257e-07, No Iterations 4
DILUPBiCGStab:  Solving for e, Initial residual = 0.112408, Final residual = 9.5976e-07, No Iterations 4
DICPCG:  Solving for p_rgh, Initial residual = 0.234511, Final residual = 0.0017334, No Iterations 10
diagonal:  Solving for rho, Initial residual = 0, Final residual = 0, No Iterations 0
time step continuity errors : sum local = 0.000204445, global = -1.8558e-06, cumulative = 0.00252887
DICPCG:  Solving for p_rgh, Initial residual = 0.13835, Final residual = 8.36029e-09, No Iterations 46
diagonal:  Solving for rho, Initial residual = 0, Final residual = 0, No Iterations 0
time step continuity errors : sum local = 1.8566e-06, global = -1.8558e-06, cumulative = 0.00252702
DILUPBiCGStab:  Solving for epsilon, Initial residual = 0.195123, Final residual = 8.64679e-08, No Iterations 3
DILUPBiCGStab:  Solving for k, Initial residual = 0.22365, Final residual = 1.29321e-07, No Iterations 4
ExecutionTime = 0.16 s  ClockTime = 0 s

Courant Number mean: 1.19498 max: 2.65976
Time = 16

diagonal:  Solving for rho, Initial residual = 0, Final residual = 0, No Iterations 0
DILUPBiCGStab:  Solving for Ux, Initial residual = 0.0437062, Final residual = 8.02565e-07, No Iterations 3
DILUPBiCGStab:  Solving for Uy, Initial residual = 0.0493765, Final residual = 2.15357e-07, No Iterations 4
DILUPBiCGStab:  Solving for Uz, Initial residual = 0.0437062, Final residual = 8.02565e-07, No Iterations 3
DILUPBiCGStab:  Solving for e, Initial residual = 0.0931352, Final residual = 3.04e-07, No Iterations 4
DICPCG:  Solving for p_rgh, Initial residual = 0.184394, Final residual = 0.00136359, No Iterations 14
diagonal:  Solving for rho, Initial residual = 0, Final residual = 0, No Iterations 0
time step continuity errors : sum local = 0.000185866, global = -1.70216e-06, cumulative = 0.00252532
DICPCG:  Solving for p_rgh, Initial residual = 0.105024, Final residual = 5.05975e-09, No Iterations 46
diagonal:  Solving for rho, Initial residual = 0, Final residual = 0, No Iterations 0
time step continuity errors : sum local = 1.70261e-06, global = -1.70216e-06, cumulative = 0.00252361
DILUPBiCGStab:  Solving for epsilon, Initial residual = 0.175416, Final residual = 7.93964e-07, No Iterations 3
DILUPBiCGStab:  Solving for k, Initial residual = 0.201539, Final residual = 7.81883e-07, No Iterations 3
ExecutionTime = 0.18 s  ClockTime = 0 s

Courant Number mean: 1.11388 max: 2.41727
Time = 18

diagonal:  Solving for rho, Initial residual = 0, Final residual = 0, No Iterations 0
DILUPBiCGStab:  Solving for Ux, Initial residual = 0.0397861, Final residual = 4.06226e-07, No Iterations 3
DILUPBiCGStab:  Solving for Uy, Initial residual = 0.0429678, Final residual = 6.26201e-07, No Iterations 3
DILUPBiCGStab:  Solving for Uz, Initial residual = 0.0397861, Final residual = 4.06226e-07, No Iterations 3
DILUPBiCGStab:  Solving for e, Initial residual = 0.0778326, Final residual = 7.43059e-07, No Iterations 3
DICPCG:  Solving for p_rgh, Initial residual = 0.163468, Final residual = 0.000945978, No Iterations 10
diagonal:  Solving for rho, Initial residual = 0, Final residual = 0, No Iterations 0
time step continuity errors : sum local = 8.57362e-05, global = -1.51565e-06, cumulative = 0.0025221
DICPCG:  Solving for p_rgh, Initial residual = 0.0932392, Final residual = 8.73794e-09, No Iterations 47
diagonal:  Solving for rho, Initial residual = 0, Final residual = 0, No Iterations 0
time step continuity errors : sum local = 1.51634e-06, global = -1.51565e-06, cumulative = 0.00252058
DILUPBiCGStab:  Solving for epsilon, Initial residual = 0.157296, Final residual = 5.39739e-07, No Iterations 3
DILUPBiCGStab:  Solving for k, Initial residual = 0.184996, Final residual = 3.28667e-07, No Iterations 3
ExecutionTime = 0.19 s  ClockTime = 0 s

Courant Number mean: 1.04327 max: 2.19911
Time = 20

diagonal:  Solving for rho, Initial residual = 0, Final residual = 0, No Iterations 0
DILUPBiCGStab:  Solving for Ux, Initial residual = 0.037196, Final residual = 2.29225e-07, No Iterations 3
DILUPBiCGStab:  Solving for Uy, Initial residual = 0.0383388, Final residual = 7.2248e-07, No Iterations 3
DILUPBiCGStab:  Solving for Uz, Initial residual = 0.037196, Final residual = 2.29225e-07, No Iterations 3
DILUPBiCGStab:  Solving for e, Initial residual = 0.0672137, Final residual = 3.93747e-07, No Iterations 3
DICPCG:  Solving for p_rgh, Initial residual = 0.145342, Final residual = 0.00135752, No Iterations 13
diagonal:  Solving for rho, Initial residual = 0, Final residual = 0, No Iterations 0
time step continuity errors : sum local = 0.000136251, global = -1.39516e-06, cumulative = 0.00251919
DICPCG:  Solving for p_rgh, Initial residual = 0.0816717, Final residual = 6.17438e-09, No Iterations 47
diagonal:  Solving for rho, Initial residual = 0, Final residual = 0, No Iterations 0
time step continuity errors : sum local = 1.39561e-06, global = -1.39516e-06, cumulative = 0.00251779
DILUPBiCGStab:  Solving for epsilon, Initial residual = 0.142138, Final residual = 3.58125e-07, No Iterations 3
DILUPBiCGStab:  Solving for k, Initial residual = 0.171955, Final residual = 1.58503e-07, No Iterations 3
ExecutionTime = 0.2 s  ClockTime = 0 s

Courant Number mean: 0.980535 max: 2.00859
Time = 22

diagonal:  Solving for rho, Initial residual = 0, Final residual = 0, No Iterations 0
DILUPBiCGStab:  Solving for Ux, Initial residual = 0.0345097, Final residual = 1.32291e-07, No Iterations 3
DILUPBiCGStab:  Solving for Uy, Initial residual = 0.0352033, Final residual = 2.01913e-07, No Iterations 3
DILUPBiCGStab:  Solving for Uz, Initial residual = 0.0345097, Final residual = 1.32291e-07, No Iterations 3
DILUPBiCGStab:  Solving for e, Initial residual = 0.0593834, Final residual = 2.41241e-07, No Iterations 3
DICPCG:  Solving for p_rgh, Initial residual = 0.129309, Final residual = 0.00112666, No Iterations 9
diagonal:  Solving for rho, Initial residual = 0, Final residual = 0, No Iterations 0
time step continuity errors : sum local = 8.58154e-05, global = -1.2826e-06, cumulative = 0.00251651
DICPCG:  Solving for p_rgh, Initial residual = 0.0723623, Final residual = 5.68499e-09, No Iterations 47
diagonal:  Solving for rho, Initial residual = 0, Final residual = 0, No Iterations 0
time step continuity errors : sum local = 1.28299e-06, global = -1.2826e-06, cumulative = 0.00251523
DILUPBiCGStab:  Solving for epsilon, Initial residual = 0.129944, Final residual = 2.41206e-07, No Iterations 3
DILUPBiCGStab:  Solving for k, Initial residual = 0.161294, Final residual = 9.85353e-08, No Iterations 3
ExecutionTime = 0.22 s  ClockTime = 0 s

Courant Number mean: 0.924427 max: 1.84218
Time = 24

diagonal:  Solving for rho, Initial residual = 0, Final residual = 0, No Iterations 0
DILUPBiCGStab:  Solving for Ux, Initial residual = 0.0325155, Final residual = 8.82592e-07, No Iterations 3
DILUPBiCGStab:  Solving for Uy, Initial residual = 0.0327096, Final residual = 1.17051e-07, No Iterations 3
DILUPBiCGStab:  Solving for Uz, Initial residual = 0.0325155, Final residual = 8.82592e-07, No Iterations 3
DILUPBiCGStab:  Solving for e, Initial residual = 0.0531283, Final residual = 1.54492e-07, No Iterations 3
DICPCG:  Solving for p_rgh, Initial residual = 0.117832, Final residual = 0.000946552, No Iterations 10
diagonal:  Solving for rho, Initial residual = 0, Final residual = 0, No Iterations 0
time step continuity errors : sum local = 7.96499e-05, global = -1.19951e-06, cumulative = 0.00251403
DICPCG:  Solving for p_rgh, Initial residual = 0.0649357, Final residual = 8.79211e-09, No Iterations 46
diagonal:  Solving for rho, Initial residual = 0, Final residual = 0, No Iterations 0
time step continuity errors : sum local = 1.20007e-06, global = -1.19951e-06, cumulative = 0.00251283
DILUPBiCGStab:  Solving for epsilon, Initial residual = 0.120254, Final residual = 1.67698e-07, No Iterations 3
DILUPBiCGStab:  Solving for k, Initial residual = 0.152359, Final residual = 7.0847e-07, No Iterations 3
ExecutionTime = 0.23 s  ClockTime = 0 s

Courant Number mean: 0.874022 max: 1.69852
Time = 26

diagonal:  Solving for rho, Initial residual = 0, Final residual = 0, No Iterations 0
DILUPBiCGStab:  Solving for Ux, Initial residual = 0.030578, Final residual = 6.11524e-07, No Iterations 3
DILUPBiCGStab:  Solving for Uy, Initial residual = 0.0308126, Final residual = 8.47058e-07, No Iterations 3
DILUPBiCGStab:  Solving for Uz, Initial residual = 0.030578, Final residual = 6.11524e-07, No Iterations 3
DILUPBiCGStab:  Solving for e, Initial residual = 0.047677, Final residual = 9.86815e-08, No Iterations 3
DICPCG:  Solving for p_rgh, Initial residual = 0.106869, Final residual = 0.000889449, No Iterations 10
diagonal:  Solving for rho, Initial residual = 0, Final residual = 0, No Iterations 0
time step continuity errors : sum local = 6.1993e-05, global = -1.12695e-06, cumulative = 0.0025117
DICPCG:  Solving for p_rgh, Initial residual = 0.0582529, Final residual = 7.79328e-09, No Iterations 46
diagonal:  Solving for rho, Initial residual = 0, Final residual = 0, No Iterations 0
time step continuity errors : sum local = 1.12741e-06, global = -1.12695e-06, cumulative = 0.00251057
DILUPBiCGStab:  Solving for epsilon, Initial residual = 0.112457, Final residual = 1.19955e-07, No Iterations 3
DILUPBiCGStab:  Solving for k, Initial residual = 0.14463, Final residual = 5.05934e-07, No Iterations 3
ExecutionTime = 0.24 s  ClockTime = 0 s

Courant Number mean: 0.828383 max: 1.57479
Time = 28

diagonal:  Solving for rho, Initial residual = 0, Final residual = 0, No Iterations 0
DILUPBiCGStab:  Solving for Ux, Initial residual = 0.0289368, Final residual = 4.47839e-07, No Iterations 3
DILUPBiCGStab:  Solving for Uy, Initial residual = 0.0290752, Final residual = 5.82783e-07, No Iterations 3
DILUPBiCGStab:  Solving for Uz, Initial residual = 0.0289368, Final residual = 4.47839e-07, No Iterations 3
DILUPBiCGStab:  Solving for e, Initial residual = 0.0428473, Final residual = 7.61143e-07, No Iterations 3
DICPCG:  Solving for p_rgh, Initial residual = 0.0981502, Final residual = 0.000976494, No Iterations 10
diagonal:  Solving for rho, Initial residual = 0, Final residual = 0, No Iterations 0
time step continuity errors : sum local = 6.94323e-05, global = -1.06731e-06, cumulative = 0.00250951
DICPCG:  Solving for p_rgh, Initial residual = 0.052541, Final residual = 6.54305e-09, No Iterations 46
diagonal:  Solving for rho, Initial residual = 0, Final residual = 0, No Iterations 0
time step continuity errors : sum local = 1.06767e-06, global = -1.06731e-06, cumulative = 0.00250844
DILUPBiCGStab:  Solving for epsilon, Initial residual = 0.105948, Final residual = 8.76301e-08, No Iterations 3
DILUPBiCGStab:  Solving for k, Initial residual = 0.137833, Final residual = 3.76988e-07, No Iterations 3
ExecutionTime = 0.26 s  ClockTime = 0 s

Courant Number mean: 0.786942 max: 1.51341
Time = 30

diagonal:  Solving for rho, Initial residual = 0, Final residual = 0, No Iterations 0
DILUPBiCGStab:  Solving for Ux, Initial residual = 0.0274287, Final residual = 3.21691e-07, No Iterations 3
DILUPBiCGStab:  Solving for Uy, Initial residual = 0.0276609, Final residual = 4.09075e-07, No Iterations 3
DILUPBiCGStab:  Solving for Uz, Initial residual = 0.0274287, Final residual = 3.21691e-07, No Iterations 3
DILUPBiCGStab:  Solving for e, Initial residual = 0.0388073, Final residual = 4.97976e-07, No Iterations 3
DICPCG:  Solving for p_rgh, Initial residual = 0.0902877, Final residual = 0.000873339, No Iterations 10
diagonal:  Solving for rho, Initial residual = 0, Final residual = 0, No Iterations 0
time step continuity errors : sum local = 5.48575e-05, global = -1.01423e-06, cumulative = 0.00250743
DICPCG:  Solving for p_rgh, Initial residual = 0.0475473, Final residual = 5.92872e-09, No Iterations 46
diagonal:  Solving for rho, Initial residual = 0, Final residual = 0, No Iterations 0
time step continuity errors : sum local = 1.01454e-06, global = -1.01423e-06, cumulative = 0.00250641
DILUPBiCGStab:  Solving for epsilon, Initial residual = 0.100486, Final residual = 9.3476e-07, No Iterations 2
DILUPBiCGStab:  Solving for k, Initial residual = 0.131743, Final residual = 2.88994e-07, No Iterations 3
ExecutionTime = 0.27 s  ClockTime = 0 s

Courant Number mean: 0.749145 max: 1.46073
Time = 32

diagonal:  Solving for rho, Initial residual = 0, Final residual = 0, No Iterations 0
DILUPBiCGStab:  Solving for Ux, Initial residual = 0.0260943, Final residual = 2.3998e-07, No Iterations 3
DILUPBiCGStab:  Solving for Uy, Initial residual = 0.0263433, Final residual = 2.90985e-07, No Iterations 3
DILUPBiCGStab:  Solving for Uz, Initial residual = 0.0260943, Final residual = 2.3998e-07, No Iterations 3
DILUPBiCGStab:  Solving for e, Initial residual = 0.0352911, Final residual = 3.24941e-07, No Iterations 3
DICPCG:  Solving for p_rgh, Initial residual = 0.0834515, Final residual = 0.00077237, No Iterations 9
diagonal:  Solving for rho, Initial residual = 0, Final residual = 0, No Iterations 0
time step continuity errors : sum local = 5.01181e-05, global = -9.68487e-07, cumulative = 0.00250544
DICPCG:  Solving for p_rgh, Initial residual = 0.0431369, Final residual = 4.95319e-09, No Iterations 46
diagonal:  Solving for rho, Initial residual = 0, Final residual = 0, No Iterations 0
time step continuity errors : sum local = 9.68734e-07, global = -9.68487e-07, cumulative = 0.00250447
DILUPBiCGStab:  Solving for epsilon, Initial residual = 0.0958015, Final residual = 7.25549e-07, No Iterations 2
DILUPBiCGStab:  Solving for k, Initial residual = 0.126262, Final residual = 2.26528e-07, No Iterations 3
ExecutionTime = 0.28 s  ClockTime = 0 s

Courant Number mean: 0.714547 max: 1.40886
Time = 34

diagonal:  Solving for rho, Initial residual = 0, Final residual = 0, No Iterations 0
DILUPBiCGStab:  Solving for Ux, Initial residual = 0.0248919, Final residual = 1.76195e-07, No Iterations 3
DILUPBiCGStab:  Solving for Uy, Initial residual = 0.025176, Final residual = 2.11635e-07, No Iterations 3
DILUPBiCGStab:  Solving for Uz, Initial residual = 0.0248919, Final residual = 1.76195e-07, No Iterations 3
DILUPBiCGStab:  Solving for e, Initial residual = 0.032427, Final residual = 2.18735e-07, No Iterations 3
DICPCG:  Solving for p_rgh, Initial residual = 0.0772728, Final residual = 0.000705633, No Iterations 10
diagonal:  Solving for rho, Initial residual = 0, Final residual = 0, No Iterations 0
time step continuity errors : sum local = 4.16624e-05, global = -9.2662e-07, cumulative = 0.00250355
DICPCG:  Solving for p_rgh, Initial residual = 0.0392095, Final residual = 9.5113e-09, No Iterations 45
diagonal:  Solving for rho, Initial residual = 0, Final residual = 0, No Iterations 0
time step continuity errors : sum local = 9.27072e-07, global = -9.2662e-07, cumulative = 0.00250262
DILUPBiCGStab:  Solving for epsilon, Initial residual = 0.0917368, Final residual = 5.67849e-07, No Iterations 2
DILUPBiCGStab:  Solving for k, Initial residual = 0.121291, Final residual = 1.8034e-07, No Iterations 3
ExecutionTime = 0.3 s  ClockTime = 0 s

Courant Number mean: 0.682799 max: 1.35815
Time = 36

diagonal:  Solving for rho, Initial residual = 0, Final residual = 0, No Iterations 0
DILUPBiCGStab:  Solving for Ux, Initial residual = 0.0238176, Final residual = 1.32395e-07, No Iterations 3
DILUPBiCGStab:  Solving for Uy, Initial residual = 0.0240669, Final residual = 9.8966e-07, No Iterations 2
DILUPBiCGStab:  Solving for Uz, Initial residual = 0.0238176, Final residual = 1.32395e-07, No Iterations 3
DILUPBiCGStab:  Solving for e, Initial residual = 0.0299647, Final residual = 1.54276e-07, No Iterations 3
DICPCG:  Solving for p_rgh, Initial residual = 0.0721924, Final residual = 0.000537618, No Iterations 9
diagonal:  Solving for rho, Initial residual = 0, Final residual = 0, No Iterations 0
time step continuity errors : sum local = 3.35834e-05, global = -8.89927e-07, cumulative = 0.00250173
DICPCG:  Solving for p_rgh, Initial residual = 0.0357871, Final residual = 7.08229e-09, No Iterations 45
diagonal:  Solving for rho, Initial residual = 0, Final residual = 0, No Iterations 0
time step continuity errors : sum local = 8.90248e-07, global = -8.89927e-07, cumulative = 0.00250084
DILUPBiCGStab:  Solving for epsilon, Initial residual = 0.0881693, Final residual = 4.47883e-07, No Iterations 2
DILUPBiCGStab:  Solving for k, Initial residual = 0.116756, Final residual = 1.44512e-07, No Iterations 3
ExecutionTime = 0.31 s  ClockTime = 0 s

Courant Number mean: 0.653535 max: 1.30887
Time = 38

diagonal:  Solving for rho, Initial residual = 0, Final residual = 0, No Iterations 0
DILUPBiCGStab:  Solving for Ux, Initial residual = 0.022862, Final residual = 7.66423e-07, No Iterations 2
DILUPBiCGStab:  Solving for Uy, Initial residual = 0.0230624, Final residual = 7.51918e-07, No Iterations 2
DILUPBiCGStab:  Solving for Uz, Initial residual = 0.022862, Final residual = 7.66423e-07, No Iterations 2
DILUPBiCGStab:  Solving for e, Initial residual = 0.0278018, Final residual = 8.40042e-07, No Iterations 2
DICPCG:  Solving for p_rgh, Initial residual = 0.0668291, Final residual = 0.000645678, No Iterations 9
diagonal:  Solving for rho, Initial residual = 0, Final residual = 0, No Iterations 0
time step continuity errors : sum local = 3.57082e-05, global = -8.55633e-07, cumulative = 0.00249999
DICPCG:  Solving for p_rgh, Initial residual = 0.0326417, Final residual = 6.9163e-09, No Iterations 45
diagonal:  Solving for rho, Initial residual = 0, Final residual = 0, No Iterations 0
time step continuity errors : sum local = 8.55934e-07, global = -8.55633e-07, cumulative = 0.00249913
DILUPBiCGStab:  Solving for epsilon, Initial residual = 0.0850142, Final residual = 3.55597e-07, No Iterations 2
DILUPBiCGStab:  Solving for k, Initial residual = 0.112597, Final residual = 1.15915e-07, No Iterations 3
ExecutionTime = 0.32 s  ClockTime = 0 s

Courant Number mean: 0.626487 max: 1.26126
Time = 40

diagonal:  Solving for rho, Initial residual = 0, Final residual = 0, No Iterations 0
DILUPBiCGStab:  Solving for Ux, Initial residual = 0.0219787, Final residual = 5.86284e-07, No Iterations 2
DILUPBiCGStab:  Solving for Uy, Initial residual = 0.0221358, Final residual = 5.77743e-07, No Iterations 2
DILUPBiCGStab:  Solving for Uz, Initial residual = 0.0219787, Final residual = 5.86284e-07, No Iterations 2
DILUPBiCGStab:  Solving for e, Initial residual = 0.0257916, Final residual = 6.56907e-07, No Iterations 2
DICPCG:  Solving for p_rgh, Initial residual = 0.062381, Final residual = 0.000434847, No Iterations 9
diagonal:  Solving for rho, Initial residual = 0, Final residual = 0, No Iterations 0
time step continuity errors : sum local = 2.58467e-05, global = -8.24117e-07, cumulative = 0.00249831
DICPCG:  Solving for p_rgh, Initial residual = 0.029789, Final residual = 9.72591e-09, No Iterations 44
diagonal:  Solving for rho, Initial residual = 0, Final residual = 0, No Iterations 0
time step continuity errors : sum local = 8.24525e-07, global = -8.24117e-07, cumulative = 0.00249748
DILUPBiCGStab:  Solving for epsilon, Initial residual = 0.0821904, Final residual = 2.84001e-07, No Iterations 2
DILUPBiCGStab:  Solving for k, Initial residual = 0.10876, Final residual = 9.54531e-07, No Iterations 2
ExecutionTime = 0.34 s  ClockTime = 0 s

Courant Number mean: 0.60142 max: 1.21546
Time = 42

diagonal:  Solving for rho, Initial residual = 0, Final residual = 0, No Iterations 0
DILUPBiCGStab:  Solving for Ux, Initial residual = 0.0211706, Final residual = 4.46499e-07, No Iterations 2
DILUPBiCGStab:  Solving for Uy, Initial residual = 0.021286, Final residual = 4.48313e-07, No Iterations 2
DILUPBiCGStab:  Solving for Uz, Initial residual = 0.0211706, Final residual = 4.46499e-07, No Iterations 2
DILUPBiCGStab:  Solving for e, Initial residual = 0.023965, Final residual = 5.23128e-07, No Iterations 2
DICPCG:  Solving for p_rgh, Initial residual = 0.0581643, Final residual = 0.000536497, No Iterations 9
diagonal:  Solving for rho, Initial residual = 0, Final residual = 0, No Iterations 0
time step continuity errors : sum local = 2.84168e-05, global = -7.94419e-07, cumulative = 0.00249669
DICPCG:  Solving for p_rgh, Initial residual = 0.0272719, Final residual = 9.75723e-09, No Iterations 44
diagonal:  Solving for rho, Initial residual = 0, Final residual = 0, No Iterations 0
time step continuity errors : sum local = 7.94813e-07, global = -7.94419e-07, cumulative = 0.00249589
DILUPBiCGStab:  Solving for epsilon, Initial residual = 0.0796312, Final residual = 2.27972e-07, No Iterations 2
DILUPBiCGStab:  Solving for k, Initial residual = 0.105217, Final residual = 7.64449e-07, No Iterations 2
ExecutionTime = 0.35 s  ClockTime = 0 s

Courant Number mean: 0.578163 max: 1.1716
Time = 44

diagonal:  Solving for rho, Initial residual = 0, Final residual = 0, No Iterations 0
DILUPBiCGStab:  Solving for Ux, Initial residual = 0.0204263, Final residual = 3.47015e-07, No Iterations 2
DILUPBiCGStab:  Solving for Uy, Initial residual = 0.0204803, Final residual = 3.50689e-07, No Iterations 2
DILUPBiCGStab:  Solving for Uz, Initial residual = 0.0204263, Final residual = 3.47015e-07, No Iterations 2
DILUPBiCGStab:  Solving for e, Initial residual = 0.022326, Final residual = 4.21749e-07, No Iterations 2
DICPCG:  Solving for p_rgh, Initial residual = 0.05455, Final residual = 0.000403065, No Iterations 9
diagonal:  Solving for rho, Initial residual = 0, Final residual = 0, No Iterations 0
time step continuity errors : sum local = 2.23072e-05, global = -7.66954e-07, cumulative = 0.00249513
DICPCG:  Solving for p_rgh, Initial residual = 0.0249647, Final residual = 8.10802e-09, No Iterations 44
diagonal:  Solving for rho, Initial residual = 0, Final residual = 0, No Iterations 0
time step continuity errors : sum local = 7.67269e-07, global = -7.66954e-07, cumulative = 0.00249436
DILUPBiCGStab:  Solving for epsilon, Initial residual = 0.0772855, Final residual = 1.83877e-07, No Iterations 2
DILUPBiCGStab:  Solving for k, Initial residual = 0.101934, Final residual = 6.15088e-07, No Iterations 2
ExecutionTime = 0.36 s  ClockTime = 0 s

Courant Number mean: 0.556517 max: 1.12967
Time = 46

diagonal:  Solving for rho, Initial residual = 0, Final residual = 0, No Iterations 0
DILUPBiCGStab:  Solving for Ux, Initial residual = 0.0197333, Final residual = 2.70332e-07, No Iterations 2
DILUPBiCGStab:  Solving for Uy, Initial residual = 0.0197309, Final residual = 2.76442e-07, No Iterations 2
DILUPBiCGStab:  Solving for Uz, Initial residual = 0.0197333, Final residual = 2.70332e-07, No Iterations 2
DILUPBiCGStab:  Solving for e, Initial residual = 0.0208516, Final residual = 3.42917e-07, No Iterations 2
DICPCG:  Solving for p_rgh, Initial residual = 0.0512831, Final residual = 0.00046708, No Iterations 9
diagonal:  Solving for rho, Initial residual = 0, Final residual = 0, No Iterations 0
time step continuity errors : sum local = 2.36708e-05, global = -7.41106e-07, cumulative = 0.00249362
DICPCG:  Solving for p_rgh, Initial residual = 0.0229086, Final residual = 7.89962e-09, No Iterations 44
diagonal:  Solving for rho, Initial residual = 0, Final residual = 0, No Iterations 0
time step continuity errors : sum local = 7.41404e-07, global = -7.41106e-07, cumulative = 0.00249288
DILUPBiCGStab:  Solving for epsilon, Initial residual = 0.075127, Final residual = 1.49015e-07, No Iterations 2
DILUPBiCGStab:  Solving for k, Initial residual = 0.0988786, Final residual = 4.97117e-07, No Iterations 2
ExecutionTime = 0.37 s  ClockTime = 0 s

Courant Number mean: 0.536326 max: 1.08971
Time = 48

diagonal:  Solving for rho, Initial residual = 0, Final residual = 0, No Iterations 0
DILUPBiCGStab:  Solving for Ux, Initial residual = 0.0190839, Final residual = 2.13487e-07, No Iterations 2
DILUPBiCGStab:  Solving for Uy, Initial residual = 0.0190263, Final residual = 2.1957e-07, No Iterations 2
DILUPBiCGStab:  Solving for Uz, Initial residual = 0.0190839, Final residual = 2.13487e-07, No Iterations 2
DILUPBiCGStab:  Solving for e, Initial residual = 0.0195693, Final residual = 2.81147e-07, No Iterations 2
DICPCG:  Solving for p_rgh, Initial residual = 0.0480787, Final residual = 0.000396478, No Iterations 9
diagonal:  Solving for rho, Initial residual = 0, Final residual = 0, No Iterations 0
time step continuity errors : sum local = 2.0296e-05, global = -7.16929e-07, cumulative = 0.00249216
DICPCG:  Solving for p_rgh, Initial residual = 0.0210305, Final residual = 6.84043e-09, No Iterations 44
diagonal:  Solving for rho, Initial residual = 0, Final residual = 0, No Iterations 0
time step continuity errors : sum local = 7.17179e-07, global = -7.16929e-07, cumulative = 0.00249144
DILUPBiCGStab:  Solving for epsilon, Initial residual = 0.073131, Final residual = 1.21288e-07, No Iterations 2
DILUPBiCGStab:  Solving for k, Initial residual = 0.0960176, Final residual = 4.03492e-07, No Iterations 2
ExecutionTime = 0.39 s  ClockTime = 0 s

Courant Number mean: 0.51747 max: 1.05169
Time = 50

diagonal:  Solving for rho, Initial residual = 0, Final residual = 0, No Iterations 0
DILUPBiCGStab:  Solving for Ux, Initial residual = 0.0184831, Final residual = 1.69624e-07, No Iterations 2
DILUPBiCGStab:  Solving for Uy, Initial residual = 0.018365, Final residual = 1.75537e-07, No Iterations 2
DILUPBiCGStab:  Solving for Uz, Initial residual = 0.0184831, Final residual = 1.69624e-07, No Iterations 2
DILUPBiCGStab:  Solving for e, Initial residual = 0.0184776, Final residual = 2.3258e-07, No Iterations 2
DICPCG:  Solving for p_rgh, Initial residual = 0.0451009, Final residual = 0.000420635, No Iterations 9
diagonal:  Solving for rho, Initial residual = 0, Final residual = 0, No Iterations 0
time step continuity errors : sum local = 2.03452e-05, global = -6.94209e-07, cumulative = 0.00249075
DICPCG:  Solving for p_rgh, Initial residual = 0.0193701, Final residual = 6.64288e-09, No Iterations 44
diagonal:  Solving for rho, Initial residual = 0, Final residual = 0, No Iterations 0
time step continuity errors : sum local = 6.94444e-07, global = -6.94209e-07, cumulative = 0.00249005
DILUPBiCGStab:  Solving for epsilon, Initial residual = 0.0712838, Final residual = 9.91498e-08, No Iterations 2
DILUPBiCGStab:  Solving for k, Initial residual = 0.093332, Final residual = 3.28834e-07, No Iterations 2
ExecutionTime = 0.4 s  ClockTime = 0 s

Courant Number mean: 0.499836 max: 1.01555
Time = 52

diagonal:  Solving for rho, Initial residual = 0, Final residual = 0, No Iterations 0
DILUPBiCGStab:  Solving for Ux, Initial residual = 0.017918, Final residual = 1.35895e-07, No Iterations 2
DILUPBiCGStab:  Solving for Uy, Initial residual = 0.0177407, Final residual = 1.41041e-07, No Iterations 2
DILUPBiCGStab:  Solving for Uz, Initial residual = 0.017918, Final residual = 1.35895e-07, No Iterations 2
DILUPBiCGStab:  Solving for e, Initial residual = 0.0175607, Final residual = 1.93929e-07, No Iterations 2
DICPCG:  Solving for p_rgh, Initial residual = 0.0424093, Final residual = 0.000396485, No Iterations 9
diagonal:  Solving for rho, Initial residual = 0, Final residual = 0, No Iterations 0
time step continuity errors : sum local = 1.88284e-05, global = -6.73064e-07, cumulative = 0.00248938
DICPCG:  Solving for p_rgh, Initial residual = 0.017834, Final residual = 5.83206e-09, No Iterations 44
diagonal:  Solving for rho, Initial residual = 0, Final residual = 0, No Iterations 0
time step continuity errors : sum local = 6.73264e-07, global = -6.73064e-07, cumulative = 0.00248871
DILUPBiCGStab:  Solving for epsilon, Initial residual = 0.0695674, Final residual = 8.1412e-08, No Iterations 2
DILUPBiCGStab:  Solving for k, Initial residual = 0.0908079, Final residual = 2.69022e-07, No Iterations 2
ExecutionTime = 0.41 s  ClockTime = 0 s

Courant Number mean: 0.483314 max: 0.981233
Time = 54

diagonal:  Solving for rho, Initial residual = 0, Final residual = 0, No Iterations 0
DILUPBiCGStab:  Solving for Ux, Initial residual = 0.0173833, Final residual = 1.095e-07, No Iterations 2
DILUPBiCGStab:  Solving for Uy, Initial residual = 0.017152, Final residual = 1.14018e-07, No Iterations 2
DILUPBiCGStab:  Solving for Uz, Initial residual = 0.0173833, Final residual = 1.095e-07, No Iterations 2
DILUPBiCGStab:  Solving for e, Initial residual = 0.0168114, Final residual = 1.62606e-07, No Iterations 2
DICPCG:  Solving for p_rgh, Initial residual = 0.0398284, Final residual = 0.000390694, No Iterations 9
diagonal:  Solving for rho, Initial residual = 0, Final residual = 0, No Iterations 0
time step continuity errors : sum local = 1.79912e-05, global = -6.53306e-07, cumulative = 0.00248805
DICPCG:  Solving for p_rgh, Initial residual = 0.0164359, Final residual = 5.68178e-09, No Iterations 44
diagonal:  Solving for rho, Initial residual = 0, Final residual = 0, No Iterations 0
time step continuity errors : sum local = 6.53496e-07, global = -6.53306e-07, cumulative = 0.0024874
DILUPBiCGStab:  Solving for epsilon, Initial residual = 0.0679625, Final residual = 6.71144e-08, No Iterations 2
DILUPBiCGStab:  Solving for k, Initial residual = 0.0884314, Final residual = 2.20945e-07, No Iterations 2
ExecutionTime = 0.43 s  ClockTime = 0 s

Courant Number mean: 0.467818 max: 0.948676
Time = 56

diagonal:  Solving for rho, Initial residual = 0, Final residual = 0, No Iterations 0
DILUPBiCGStab:  Solving for Ux, Initial residual = 0.0168795, Final residual = 8.86868e-08, No Iterations 2
DILUPBiCGStab:  Solving for Uy, Initial residual = 0.0166001, Final residual = 9.26429e-08, No Iterations 2
DILUPBiCGStab:  Solving for Uz, Initial residual = 0.0168795, Final residual = 8.86868e-08, No Iterations 2
DILUPBiCGStab:  Solving for e, Initial residual = 0.0162363, Final residual = 1.36989e-07, No Iterations 2
DICPCG:  Solving for p_rgh, Initial residual = 0.0375876, Final residual = 0.000331619, No Iterations 10
diagonal:  Solving for rho, Initial residual = 0, Final residual = 0, No Iterations 0
time step continuity errors : sum local = 1.54489e-05, global = -6.34923e-07, cumulative = 0.00248677
DICPCG:  Solving for p_rgh, Initial residual = 0.0151484, Final residual = 9.24279e-09, No Iterations 43
diagonal:  Solving for rho, Initial residual = 0, Final residual = 0, No Iterations 0
time step continuity errors : sum local = 6.35225e-07, global = -6.34923e-07, cumulative = 0.00248613
DILUPBiCGStab:  Solving for epsilon, Initial residual = 0.0664576, Final residual = 5.55528e-08, No Iterations 2
DILUPBiCGStab:  Solving for k, Initial residual = 0.086192, Final residual = 1.82139e-07, No Iterations 2
ExecutionTime = 0.44 s  ClockTime = 0 s

Courant Number mean: 0.453248 max: 0.917796
Time = 58

diagonal:  Solving for rho, Initial residual = 0, Final residual = 0, No Iterations 0
DILUPBiCGStab:  Solving for Ux, Initial residual = 0.0164024, Final residual = 7.21794e-08, No Iterations 2
DILUPBiCGStab:  Solving for Uy, Initial residual = 0.0160847, Final residual = 7.56436e-08, No Iterations 2
DILUPBiCGStab:  Solving for Uz, Initial residual = 0.0164024, Final residual = 7.21794e-08, No Iterations 2
DILUPBiCGStab:  Solving for e, Initial residual = 0.0158294, Final residual = 1.15826e-07, No Iterations 2
DICPCG:  Solving for p_rgh, Initial residual = 0.0353487, Final residual = 0.000339137, No Iterations 10
diagonal:  Solving for rho, Initial residual = 0, Final residual = 0, No Iterations 0
time step continuity errors : sum local = 1.51934e-05, global = -6.17693e-07, cumulative = 0.00248551
DICPCG:  Solving for p_rgh, Initial residual = 0.0140068, Final residual = 8.781e-09, No Iterations 43
diagonal:  Solving for rho, Initial residual = 0, Final residual = 0, No Iterations 0
time step continuity errors : sum local = 6.17973e-07, global = -6.17693e-07, cumulative = 0.0024849
DILUPBiCGStab:  Solving for epsilon, Initial residual = 0.0650449, Final residual = 4.61569e-08, No Iterations 2
DILUPBiCGStab:  Solving for k, Initial residual = 0.0840757, Final residual = 1.50727e-07, No Iterations 2
ExecutionTime = 0.45 s  ClockTime = 0 s

Courant Number mean: 0.439526 max: 0.888508
Time = 60

diagonal:  Solving for rho, Initial residual = 0, Final residual = 0, No Iterations 0
DILUPBiCGStab:  Solving for Ux, Initial residual = 0.0159515, Final residual = 5.89981e-08, No Iterations 2
DILUPBiCGStab:  Solving for Uy, Initial residual = 0.0155978, Final residual = 6.20807e-08, No Iterations 2
DILUPBiCGStab:  Solving for Uz, Initial residual = 0.0159515, Final residual = 5.89981e-08, No Iterations 2
DILUPBiCGStab:  Solving for e, Initial residual = 0.0155699, Final residual = 9.85066e-08, No Iterations 2
DICPCG:  Solving for p_rgh, Initial residual = 0.0333871, Final residual = 0.000330735, No Iterations 10
diagonal:  Solving for rho, Initial residual = 0, Final residual = 0, No Iterations 0
time step continuity errors : sum local = 1.4487e-05, global = -6.01743e-07, cumulative = 0.00248429
DICPCG:  Solving for p_rgh, Initial residual = 0.0129457, Final residual = 8.09697e-09, No Iterations 43
diagonal:  Solving for rho, Initial residual = 0, Final residual = 0, No Iterations 0
time step continuity errors : sum local = 6.01996e-07, global = -6.01743e-07, cumulative = 0.00248369
DILUPBiCGStab:  Solving for epsilon, Initial residual = 0.0637146, Final residual = 3.84949e-08, No Iterations 2
DILUPBiCGStab:  Solving for k, Initial residual = 0.0820645, Final residual = 1.25205e-07, No Iterations 2
ExecutionTime = 0.46 s  ClockTime = 0 s

Courant Number mean: 0.426591 max: 0.86073
Time = 62

diagonal:  Solving for rho, Initial residual = 0, Final residual = 0, No Iterations 0
DILUPBiCGStab:  Solving for Ux, Initial residual = 0.0155251, Final residual = 4.84213e-08, No Iterations 2
DILUPBiCGStab:  Solving for Uy, Initial residual = 0.0151373, Final residual = 5.11694e-08, No Iterations 2
DILUPBiCGStab:  Solving for Uz, Initial residual = 0.0155251, Final residual = 4.84213e-08, No Iterations 2
DILUPBiCGStab:  Solving for e, Initial residual = 0.0154511, Final residual = 8.42832e-08, No Iterations 2
DICPCG:  Solving for p_rgh, Initial residual = 0.0316708, Final residual = 0.000254915, No Iterations 13
diagonal:  Solving for rho, Initial residual = 0, Final residual = 0, No Iterations 0
time step continuity errors : sum local = 1.1569e-05, global = -5.86947e-07, cumulative = 0.00248311
DICPCG:  Solving for p_rgh, Initial residual = 0.0119657, Final residual = 7.15126e-09, No Iterations 43
diagonal:  Solving for rho, Initial residual = 0, Final residual = 0, No Iterations 0
time step continuity errors : sum local = 5.87166e-07, global = -5.86947e-07, cumulative = 0.00248252
DILUPBiCGStab:  Solving for epsilon, Initial residual = 0.0624576, Final residual = 3.22216e-08, No Iterations 2
DILUPBiCGStab:  Solving for k, Initial residual = 0.0801477, Final residual = 1.04375e-07, No Iterations 2
ExecutionTime = 0.48 s  ClockTime = 0 s

Courant Number mean: 0.414376 max: 0.834376
Time = 64

diagonal:  Solving for rho, Initial residual = 0, Final residual = 0, No Iterations 0
DILUPBiCGStab:  Solving for Ux, Initial residual = 0.0151185, Final residual = 8.59131e-07, No Iterations 2
DILUPBiCGStab:  Solving for Uy, Initial residual = 0.0146973, Final residual = 9.67702e-07, No Iterations 2
DILUPBiCGStab:  Solving for Uz, Initial residual = 0.0151185, Final residual = 8.59131e-07, No Iterations 2
DILUPBiCGStab:  Solving for e, Initial residual = 0.0155211, Final residual = 7.26709e-08, No Iterations 2
DICPCG:  Solving for p_rgh, Initial residual = 0.0298222, Final residual = 0.000236972, No Iterations 13
diagonal:  Solving for rho, Initial residual = 0, Final residual = 0, No Iterations 0
time step continuity errors : sum local = 1.06705e-05, global = -5.73297e-07, cumulative = 0.00248195
DICPCG:  Solving for p_rgh, Initial residual = 0.0110799, Final residual = 6.57608e-09, No Iterations 43
diagonal:  Solving for rho, Initial residual = 0, Final residual = 0, No Iterations 0
time step continuity errors : sum local = 5.73494e-07, global = -5.73297e-07, cumulative = 0.00248137
DILUPBiCGStab:  Solving for epsilon, Initial residual = 0.0612667, Final residual = 9.14057e-07, No Iterations 2
DILUPBiCGStab:  Solving for k, Initial residual = 0.0783204, Final residual = 8.73426e-08, No Iterations 2
ExecutionTime = 0.49 s  ClockTime = 0 s

Courant Number mean: 0.40283 max: 0.809373
Time = 66

diagonal:  Solving for rho, Initial residual = 0, Final residual = 0, No Iterations 0
DILUPBiCGStab:  Solving for Ux, Initial residual = 0.0147299, Final residual = 7.32784e-07, No Iterations 2
DILUPBiCGStab:  Solving for Uy, Initial residual = 0.0142826, Final residual = 8.31569e-07, No Iterations 2
DILUPBiCGStab:  Solving for Uz, Initial residual = 0.0147299, Final residual = 7.32784e-07, No Iterations 2
DILUPBiCGStab:  Solving for e, Initial residual = 0.0154107, Final residual = 6.26603e-08, No Iterations 2
DICPCG:  Solving for p_rgh, Initial residual = 0.0281916, Final residual = 0.000232153, No Iterations 13
diagonal:  Solving for rho, Initial residual = 0, Final residual = 0, No Iterations 0
time step continuity errors : sum local = 1.02647e-05, global = -5.60887e-07, cumulative = 0.00248081
DICPCG:  Solving for p_rgh, Initial residual = 0.0102757, Final residual = 6.00323e-09, No Iterations 43
diagonal:  Solving for rho, Initial residual = 0, Final residual = 0, No Iterations 0
time step continuity errors : sum local = 5.61064e-07, global = -5.60887e-07, cumulative = 0.00248025
DILUPBiCGStab:  Solving for epsilon, Initial residual = 0.060134, Final residual = 7.9922e-07, No Iterations 2
DILUPBiCGStab:  Solving for k, Initial residual = 0.0765762, Final residual = 7.33373e-08, No Iterations 2
ExecutionTime = 0.5 s  ClockTime = 0 s

Courant Number mean: 0.391907 max: 0.785637
Time = 68

diagonal:  Solving for rho, Initial residual = 0, Final residual = 0, No Iterations 0
DILUPBiCGStab:  Solving for Ux, Initial residual = 0.0143591, Final residual = 6.27286e-07, No Iterations 2
DILUPBiCGStab:  Solving for Uy, Initial residual = 0.013887, Final residual = 7.17024e-07, No Iterations 2
DILUPBiCGStab:  Solving for Uz, Initial residual = 0.0143591, Final residual = 6.27286e-07, No Iterations 2
DILUPBiCGStab:  Solving for e, Initial residual = 0.0151418, Final residual = 9.55781e-07, No Iterations 2
DICPCG:  Solving for p_rgh, Initial residual = 0.0265424, Final residual = 0.000224828, No Iterations 13
diagonal:  Solving for rho, Initial residual = 0, Final residual = 0, No Iterations 0
time step continuity errors : sum local = 9.78395e-06, global = -5.49564e-07, cumulative = 0.0024797
DICPCG:  Solving for p_rgh, Initial residual = 0.00954458, Final residual = 5.48521e-09, No Iterations 43
diagonal:  Solving for rho, Initial residual = 0, Final residual = 0, No Iterations 0
time step continuity errors : sum local = 5.49723e-07, global = -5.49564e-07, cumulative = 0.00247915
DILUPBiCGStab:  Solving for epsilon, Initial residual = 0.0590507, Final residual = 7.00694e-07, No Iterations 2
DILUPBiCGStab:  Solving for k, Initial residual = 0.0749068, Final residual = 6.17801e-08, No Iterations 2
ExecutionTime = 0.51 s  ClockTime = 0 s

Courant Number mean: 0.381558 max: 0.763088
Time = 70

diagonal:  Solving for rho, Initial residual = 0, Final residual = 0, No Iterations 0
DILUPBiCGStab:  Solving for Ux, Initial residual = 0.0140055, Final residual = 5.38865e-07, No Iterations 2
DILUPBiCGStab:  Solving for Uy, Initial residual = 0.0135114, Final residual = 6.19939e-07, No Iterations 2
DILUPBiCGStab:  Solving for Uz, Initial residual = 0.0140055, Final residual = 5.38865e-07, No Iterations 2
DILUPBiCGStab:  Solving for e, Initial residual = 0.014741, Final residual = 8.11554e-07, No Iterations 2
DICPCG:  Solving for p_rgh, Initial residual = 0.0253424, Final residual = 0.000219447, No Iterations 13
diagonal:  Solving for rho, Initial residual = 0, Final residual = 0, No Iterations 0
time step continuity errors : sum local = 9.3941e-06, global = -5.3928e-07, cumulative = 0.00247861
DICPCG:  Solving for p_rgh, Initial residual = 0.00888124, Final residual = 9.68376e-09, No Iterations 42
diagonal:  Solving for rho, Initial residual = 0, Final residual = 0, No Iterations 0
time step continuity errors : sum local = 5.39555e-07, global = -5.3928e-07, cumulative = 0.00247807
DILUPBiCGStab:  Solving for epsilon, Initial residual = 0.05801, Final residual = 6.15851e-07, No Iterations 2
DILUPBiCGStab:  Solving for k, Initial residual = 0.0733038, Final residual = 5.22114e-08, No Iterations 2
ExecutionTime = 0.53 s  ClockTime = 0 s

Courant Number mean: 0.371746 max: 0.741649
Time = 72

diagonal:  Solving for rho, Initial residual = 0, Final residual = 0, No Iterations 0
DILUPBiCGStab:  Solving for Ux, Initial residual = 0.0136707, Final residual = 4.65147e-07, No Iterations 2
DILUPBiCGStab:  Solving for Uy, Initial residual = 0.0131492, Final residual = 5.37349e-07, No Iterations 2
DILUPBiCGStab:  Solving for Uz, Initial residual = 0.0136707, Final residual = 4.65147e-07, No Iterations 2
DILUPBiCGStab:  Solving for e, Initial residual = 0.0144695, Final residual = 7.07314e-07, No Iterations 2
DICPCG:  Solving for p_rgh, Initial residual = 0.0242805, Final residual = 0.000212389, No Iterations 13
diagonal:  Solving for rho, Initial residual = 0, Final residual = 0, No Iterations 0
time step continuity errors : sum local = 8.9736e-06, global = -5.29856e-07, cumulative = 0.00247754
DICPCG:  Solving for p_rgh, Initial residual = 0.00829514, Final residual = 9.01832e-09, No Iterations 42
diagonal:  Solving for rho, Initial residual = 0, Final residual = 0, No Iterations 0
time step continuity errors : sum local = 5.30108e-07, global = -5.29856e-07, cumulative = 0.00247701
DILUPBiCGStab:  Solving for epsilon, Initial residual = 0.0570074, Final residual = 5.42799e-07, No Iterations 2
DILUPBiCGStab:  Solving for k, Initial residual = 0.071766, Final residual = 4.42496e-08, No Iterations 2
ExecutionTime = 0.54 s  ClockTime = 0 s

Courant Number mean: 0.362444 max: 0.721247
Time = 74

diagonal:  Solving for rho, Initial residual = 0, Final residual = 0, No Iterations 0
DILUPBiCGStab:  Solving for Ux, Initial residual = 0.0133584, Final residual = 4.03921e-07, No Iterations 2
DILUPBiCGStab:  Solving for Uy, Initial residual = 0.0127916, Final residual = 4.68279e-07, No Iterations 2
DILUPBiCGStab:  Solving for Uz, Initial residual = 0.0133584, Final residual = 4.03921e-07, No Iterations 2
DILUPBiCGStab:  Solving for e, Initial residual = 0.0145126, Final residual = 7.7025e-07, No Iterations 2
DICPCG:  Solving for p_rgh, Initial residual = 0.0230692, Final residual = 0.000205305, No Iterations 13
diagonal:  Solving for rho, Initial residual = 0, Final residual = 0, No Iterations 0
time step continuity errors : sum local = 8.57577e-06, global = -5.19904e-07, cumulative = 0.00247649
DICPCG:  Solving for p_rgh, Initial residual = 0.00774106, Final residual = 8.16762e-09, No Iterations 42
diagonal:  Solving for rho, Initial residual = 0, Final residual = 0, No Iterations 0
time step continuity errors : sum local = 5.20129e-07, global = -5.19904e-07, cumulative = 0.00247597
DILUPBiCGStab:  Solving for epsilon, Initial residual = 0.0560354, Final residual = 4.79574e-07, No Iterations 2
DILUPBiCGStab:  Solving for k, Initial residual = 0.0702951, Final residual = 3.76223e-08, No Iterations 2
ExecutionTime = 0.55 s  ClockTime = 0 s

Courant Number mean: 0.35362 max: 0.701806
Time = 76

diagonal:  Solving for rho, Initial residual = 0, Final residual = 0, No Iterations 0
DILUPBiCGStab:  Solving for Ux, Initial residual = 0.0130771, Final residual = 3.52841e-07, No Iterations 2
DILUPBiCGStab:  Solving for Uy, Initial residual = 0.0124551, Final residual = 4.10997e-07, No Iterations 2
DILUPBiCGStab:  Solving for Uz, Initial residual = 0.0130771, Final residual = 3.52841e-07, No Iterations 2
DILUPBiCGStab:  Solving for e, Initial residual = 0.0147962, Final residual = 9.61678e-07, No Iterations 2
DICPCG:  Solving for p_rgh, Initial residual = 0.0225339, Final residual = 0.00019481, No Iterations 13
diagonal:  Solving for rho, Initial residual = 0, Final residual = 0, No Iterations 0
time step continuity errors : sum local = 8.0799e-06, global = -5.08202e-07, cumulative = 0.00247547
DICPCG:  Solving for p_rgh, Initial residual = 0.00729304, Final residual = 7.87068e-09, No Iterations 42
diagonal:  Solving for rho, Initial residual = 0, Final residual = 0, No Iterations 0
time step continuity errors : sum local = 5.08416e-07, global = -5.08202e-07, cumulative = 0.00247496
DILUPBiCGStab:  Solving for epsilon, Initial residual = 0.0550992, Final residual = 4.24699e-07, No Iterations 2
DILUPBiCGStab:  Solving for k, Initial residual = 0.0688924, Final residual = 3.21119e-08, No Iterations 2
ExecutionTime = 0.56 s  ClockTime = 0 s

Courant Number mean: 0.345224 max: 0.683251
Time = 78

diagonal:  Solving for rho, Initial residual = 0, Final residual = 0, No Iterations 0
DILUPBiCGStab:  Solving for Ux, Initial residual = 0.0128325, Final residual = 3.11704e-07, No Iterations 2
DILUPBiCGStab:  Solving for Uy, Initial residual = 0.0121301, Final residual = 3.64576e-07, No Iterations 2
DILUPBiCGStab:  Solving for Uz, Initial residual = 0.0128325, Final residual = 3.11704e-07, No Iterations 2
DILUPBiCGStab:  Solving for e, Initial residual = 0.0154958, Final residual = 9.71169e-07, No Iterations 2
DICPCG:  Solving for p_rgh, Initial residual = 0.0218703, Final residual = 0.00019084, No Iterations 13
diagonal:  Solving for rho, Initial residual = 0, Final residual = 0, No Iterations 0
time step continuity errors : sum local = 7.78726e-06, global = -4.95395e-07, cumulative = 0.00247446
DICPCG:  Solving for p_rgh, Initial residual = 0.00691412, Final residual = 7.03596e-09, No Iterations 42
diagonal:  Solving for rho, Initial residual = 0, Final residual = 0, No Iterations 0
time step continuity errors : sum local = 4.95583e-07, global = -4.95395e-07, cumulative = 0.00247397
DILUPBiCGStab:  Solving for epsilon, Initial residual = 0.0541973, Final residual = 3.7713e-07, No Iterations 2
DILUPBiCGStab:  Solving for k, Initial residual = 0.0675543, Final residual = 8.87296e-07, No Iterations 2
ExecutionTime = 0.58 s  ClockTime = 0 s

Courant Number mean: 0.337237 max: 0.665492
Time = 80

diagonal:  Solving for rho, Initial residual = 0, Final residual = 0, No Iterations 0
DILUPBiCGStab:  Solving for Ux, Initial residual = 0.0126112, Final residual = 2.7764e-07, No Iterations 2
DILUPBiCGStab:  Solving for Uy, Initial residual = 0.0118227, Final residual = 3.26379e-07, No Iterations 2
DILUPBiCGStab:  Solving for Uz, Initial residual = 0.0126112, Final residual = 2.7764e-07, No Iterations 2
DILUPBiCGStab:  Solving for e, Initial residual = 0.0170919, Final residual = 9.20247e-07, No Iterations 2
DICPCG:  Solving for p_rgh, Initial residual = 0.022052, Final residual = 0.000185104, No Iterations 13
diagonal:  Solving for rho, Initial residual = 0, Final residual = 0, No Iterations 0
time step continuity errors : sum local = 7.43567e-06, global = -4.81515e-07, cumulative = 0.00247348
DICPCG:  Solving for p_rgh, Initial residual = 0.00653626, Final residual = 6.87615e-09, No Iterations 42
diagonal:  Solving for rho, Initial residual = 0, Final residual = 0, No Iterations 0
time step continuity errors : sum local = 4.81696e-07, global = -4.81515e-07, cumulative = 0.002473
DILUPBiCGStab:  Solving for epsilon, Initial residual = 0.0533332, Final residual = 3.36252e-07, No Iterations 2
DILUPBiCGStab:  Solving for k, Initial residual = 0.0662757, Final residual = 7.87967e-07, No Iterations 2
ExecutionTime = 0.59 s  ClockTime = 0 s

Courant Number mean: 0.329624 max: 0.648456
Time = 82

diagonal:  Solving for rho, Initial residual = 0, Final residual = 0, No Iterations 0
DILUPBiCGStab:  Solving for Ux, Initial residual = 0.0123962, Final residual = 2.4829e-07, No Iterations 2
DILUPBiCGStab:  Solving for Uy, Initial residual = 0.0115659, Final residual = 2.94261e-07, No Iterations 2
DILUPBiCGStab:  Solving for Uz, Initial residual = 0.0123962, Final residual = 2.4829e-07, No Iterations 2
DILUPBiCGStab:  Solving for e, Initial residual = 0.017673, Final residual = 8.27363e-07, No Iterations 2
DICPCG:  Solving for p_rgh, Initial residual = 0.0216817, Final residual = 0.000181425, No Iterations 13
diagonal:  Solving for rho, Initial residual = 0, Final residual = 0, No Iterations 0
time step continuity errors : sum local = 7.15833e-06, global = -4.67345e-07, cumulative = 0.00247254
DICPCG:  Solving for p_rgh, Initial residual = 0.00624826, Final residual = 6.77785e-09, No Iterations 42
diagonal:  Solving for rho, Initial residual = 0, Final residual = 0, No Iterations 0
time step continuity errors : sum local = 4.67521e-07, global = -4.67345e-07, cumulative = 0.00247207
DILUPBiCGStab:  Solving for epsilon, Initial residual = 0.0525056, Final residual = 3.00613e-07, No Iterations 2
DILUPBiCGStab:  Solving for k, Initial residual = 0.0650538, Final residual = 7.00934e-07, No Iterations 2
ExecutionTime = 0.6 s  ClockTime = 0 s

Courant Number mean: 0.322344 max: 0.632074
Time = 84

diagonal:  Solving for rho, Initial residual = 0, Final residual = 0, No Iterations 0
DILUPBiCGStab:  Solving for Ux, Initial residual = 0.0121862, Final residual = 2.23507e-07, No Iterations 2
DILUPBiCGStab:  Solving for Uy, Initial residual = 0.0113147, Final residual = 2.65982e-07, No Iterations 2
DILUPBiCGStab:  Solving for Uz, Initial residual = 0.0121862, Final residual = 2.23507e-07, No Iterations 2
DILUPBiCGStab:  Solving for e, Initial residual = 0.0184457, Final residual = 7.21097e-07, No Iterations 2
DICPCG:  Solving for p_rgh, Initial residual = 0.0213317, Final residual = 0.000175702, No Iterations 13
diagonal:  Solving for rho, Initial residual = 0, Final residual = 0, No Iterations 0
time step continuity errors : sum local = 6.83469e-06, global = -4.53296e-07, cumulative = 0.00247162
DICPCG:  Solving for p_rgh, Initial residual = 0.00596245, Final residual = 6.63676e-09, No Iterations 42
diagonal:  Solving for rho, Initial residual = 0, Final residual = 0, No Iterations 0
time step continuity errors : sum local = 4.53467e-07, global = -4.53296e-07, cumulative = 0.00247116
DILUPBiCGStab:  Solving for epsilon, Initial residual = 0.0517023, Final residual = 2.69277e-07, No Iterations 2
DILUPBiCGStab:  Solving for k, Initial residual = 0.0638749, Final residual = 6.24795e-07, No Iterations 2
ExecutionTime = 0.61 s  ClockTime = 0 s

Courant Number mean: 0.315386 max: 0.616266
Time = 86

diagonal:  Solving for rho, Initial residual = 0, Final residual = 0, No Iterations 0
DILUPBiCGStab:  Solving for Ux, Initial residual = 0.0119881, Final residual = 2.01651e-07, No Iterations 2
DILUPBiCGStab:  Solving for Uy, Initial residual = 0.0110923, Final residual = 2.40691e-07, No Iterations 2
DILUPBiCGStab:  Solving for Uz, Initial residual = 0.0119881, Final residual = 2.01651e-07, No Iterations 2
DILUPBiCGStab:  Solving for e, Initial residual = 0.0189268, Final residual = 5.99483e-07, No Iterations 2
DICPCG:  Solving for p_rgh, Initial residual = 0.0211683, Final residual = 0.000174364, No Iterations 13
diagonal:  Solving for rho, Initial residual = 0, Final residual = 0, No Iterations 0
time step continuity errors : sum local = 6.66396e-06, global = -4.3965e-07, cumulative = 0.00247072
DICPCG:  Solving for p_rgh, Initial residual = 0.00566993, Final residual = 6.21042e-09, No Iterations 42
diagonal:  Solving for rho, Initial residual = 0, Final residual = 0, No Iterations 0
time step continuity errors : sum local = 4.39808e-07, global = -4.3965e-07, cumulative = 0.00247028
DILUPBiCGStab:  Solving for epsilon, Initial residual = 0.0509343, Final residual = 2.41606e-07, No Iterations 2
DILUPBiCGStab:  Solving for k, Initial residual = 0.0627321, Final residual = 5.57963e-07, No Iterations 2
ExecutionTime = 0.63 s  ClockTime = 0 s

Courant Number mean: 0.308728 max: 0.60095
Time = 88

diagonal:  Solving for rho, Initial residual = 0, Final residual = 0, No Iterations 0
DILUPBiCGStab:  Solving for Ux, Initial residual = 0.0118009, Final residual = 1.82176e-07, No Iterations 2
DILUPBiCGStab:  Solving for Uy, Initial residual = 0.010877, Final residual = 2.18699e-07, No Iterations 2
DILUPBiCGStab:  Solving for Uz, Initial residual = 0.0118009, Final residual = 1.82176e-07, No Iterations 2
DILUPBiCGStab:  Solving for e, Initial residual = 0.0191393, Final residual = 6.85656e-07, No Iterations 2
DICPCG:  Solving for p_rgh, Initial residual = 0.0205386, Final residual = 0.000165669, No Iterations 13
diagonal:  Solving for rho, Initial residual = 0, Final residual = 0, No Iterations 0
time step continuity errors : sum local = 6.29595e-06, global = -4.26642e-07, cumulative = 0.00246986
DICPCG:  Solving for p_rgh, Initial residual = 0.00540662, Final residual = 6.06534e-09, No Iterations 42
diagonal:  Solving for rho, Initial residual = 0, Final residual = 0, No Iterations 0
time step continuity errors : sum local = 4.26795e-07, global = -4.26642e-07, cumulative = 0.00246943
DILUPBiCGStab:  Solving for epsilon, Initial residual = 0.0502196, Final residual = 2.16788e-07, No Iterations 2
DILUPBiCGStab:  Solving for k, Initial residual = 0.0616197, Final residual = 4.99395e-07, No Iterations 2
ExecutionTime = 0.64 s  ClockTime = 0 s

Courant Number mean: 0.302366 max: 0.586063
Time = 90

diagonal:  Solving for rho, Initial residual = 0, Final residual = 0, No Iterations 0
DILUPBiCGStab:  Solving for Ux, Initial residual = 0.0116225, Final residual = 1.65067e-07, No Iterations 2
DILUPBiCGStab:  Solving for Uy, Initial residual = 0.0106662, Final residual = 1.95954e-07, No Iterations 2
DILUPBiCGStab:  Solving for Uz, Initial residual = 0.0116225, Final residual = 1.65067e-07, No Iterations 2
DILUPBiCGStab:  Solving for e, Initial residual = 0.0190358, Final residual = 2.64108e-07, No Iterations 2
DICPCG:  Solving for p_rgh, Initial residual = 0.0201368, Final residual = 0.000167008, No Iterations 13
diagonal:  Solving for rho, Initial residual = 0, Final residual = 0, No Iterations 0
time step continuity errors : sum local = 6.22021e-06, global = -4.14422e-07, cumulative = 0.00246901
DICPCG:  Solving for p_rgh, Initial residual = 0.00517457, Final residual = 5.5115e-09, No Iterations 42
diagonal:  Solving for rho, Initial residual = 0, Final residual = 0, No Iterations 0
time step continuity errors : sum local = 4.14561e-07, global = -4.14422e-07, cumulative = 0.0024686
DILUPBiCGStab:  Solving for epsilon, Initial residual = 0.0495208, Final residual = 1.94962e-07, No Iterations 2
DILUPBiCGStab:  Solving for k, Initial residual = 0.0605412, Final residual = 4.47838e-07, No Iterations 2
ExecutionTime = 0.65 s  ClockTime = 0 s

Courant Number mean: 0.296254 max: 0.571924
Time = 92

diagonal:  Solving for rho, Initial residual = 0, Final residual = 0, No Iterations 0
DILUPBiCGStab:  Solving for Ux, Initial residual = 0.0114533, Final residual = 1.49361e-07, No Iterations 2
DILUPBiCGStab:  Solving for Uy, Initial residual = 0.0104604, Final residual = 1.73615e-07, No Iterations 2
DILUPBiCGStab:  Solving for Uz, Initial residual = 0.0114533, Final residual = 1.49361e-07, No Iterations 2
DILUPBiCGStab:  Solving for e, Initial residual = 0.018527, Final residual = 2.06303e-07, No Iterations 2
DICPCG:  Solving for p_rgh, Initial residual = 0.0195412, Final residual = 0.000163753, No Iterations 13
diagonal:  Solving for rho, Initial residual = 0, Final residual = 0, No Iterations 0
time step continuity errors : sum local = 6.01518e-06, global = -4.03038e-07, cumulative = 0.0024682
DICPCG:  Solving for p_rgh, Initial residual = 0.0049886, Final residual = 5.28595e-09, No Iterations 42
diagonal:  Solving for rho, Initial residual = 0, Final residual = 0, No Iterations 0
time step continuity errors : sum local = 4.0317e-07, global = -4.03038e-07, cumulative = 0.00246779
DILUPBiCGStab:  Solving for epsilon, Initial residual = 0.0488324, Final residual = 1.75792e-07, No Iterations 2
DILUPBiCGStab:  Solving for k, Initial residual = 0.0594855, Final residual = 4.02631e-07, No Iterations 2
ExecutionTime = 0.66 s  ClockTime = 0 s

Courant Number mean: 0.29038 max: 0.562797
Time = 94

diagonal:  Solving for rho, Initial residual = 0, Final residual = 0, No Iterations 0
DILUPBiCGStab:  Solving for Ux, Initial residual = 0.0112975, Final residual = 1.35178e-07, No Iterations 2
DILUPBiCGStab:  Solving for Uy, Initial residual = 0.0102606, Final residual = 1.54644e-07, No Iterations 2
DILUPBiCGStab:  Solving for Uz, Initial residual = 0.0112975, Final residual = 1.35178e-07, No Iterations 2
DILUPBiCGStab:  Solving for e, Initial residual = 0.0178115, Final residual = 3.49331e-08, No Iterations 2
DICPCG:  Solving for p_rgh, Initial residual = 0.0186729, Final residual = 0.000160146, No Iterations 13
diagonal:  Solving for rho, Initial residual = 0, Final residual = 0, No Iterations 0
time step continuity errors : sum local = 5.81815e-06, global = -3.92404e-07, cumulative = 0.0024674
DICPCG:  Solving for p_rgh, Initial residual = 0.00480322, Final residual = 5.0726e-09, No Iterations 42
diagonal:  Solving for rho, Initial residual = 0, Final residual = 0, No Iterations 0
time step continuity errors : sum local = 3.9253e-07, global = -3.92404e-07, cumulative = 0.00246701
DILUPBiCGStab:  Solving for epsilon, Initial residual = 0.0481407, Final residual = 1.58965e-07, No Iterations 2
DILUPBiCGStab:  Solving for k, Initial residual = 0.0584443, Final residual = 3.62518e-07, No Iterations 2
ExecutionTime = 0.68 s  ClockTime = 0 s

Courant Number mean: 0.284738 max: 0.553861
Time = 96

diagonal:  Solving for rho, Initial residual = 0, Final residual = 0, No Iterations 0
DILUPBiCGStab:  Solving for Ux, Initial residual = 0.0111602, Final residual = 1.23005e-07, No Iterations 2
DILUPBiCGStab:  Solving for Uy, Initial residual = 0.0100736, Final residual = 1.38394e-07, No Iterations 2
DILUPBiCGStab:  Solving for Uz, Initial residual = 0.0111602, Final residual = 1.23005e-07, No Iterations 2
DILUPBiCGStab:  Solving for e, Initial residual = 0.0170317, Final residual = 4.36525e-07, No Iterations 2
DICPCG:  Solving for p_rgh, Initial residual = 0.0181015, Final residual = 0.000153957, No Iterations 13
diagonal:  Solving for rho, Initial residual = 0, Final residual = 0, No Iterations 0
time step continuity errors : sum local = 5.55942e-06, global = -3.82573e-07, cumulative = 0.00246663
DICPCG:  Solving for p_rgh, Initial residual = 0.0046086, Final residual = 4.891e-09, No Iterations 42
diagonal:  Solving for rho, Initial residual = 0, Final residual = 0, No Iterations 0
time step continuity errors : sum local = 3.82694e-07, global = -3.82573e-07, cumulative = 0.00246624
DILUPBiCGStab:  Solving for epsilon, Initial residual = 0.0474525, Final residual = 1.44125e-07, No Iterations 2
DILUPBiCGStab:  Solving for k, Initial residual = 0.0574136, Final residual = 3.27122e-07, No Iterations 2
ExecutionTime = 0.69 s  ClockTime = 0 s

Courant Number mean: 0.279333 max: 0.545112
Time = 98

diagonal:  Solving for rho, Initial residual = 0, Final residual = 0, No Iterations 0
DILUPBiCGStab:  Solving for Ux, Initial residual = 0.0110699, Final residual = 1.12611e-07, No Iterations 2
DILUPBiCGStab:  Solving for Uy, Initial residual = 0.00988606, Final residual = 1.2414e-07, No Iterations 2
DILUPBiCGStab:  Solving for Uz, Initial residual = 0.0110699, Final residual = 1.12611e-07, No Iterations 2
DILUPBiCGStab:  Solving for e, Initial residual = 0.0163954, Final residual = 4.54823e-07, No Iterations 2
DICPCG:  Solving for p_rgh, Initial residual = 0.0172159, Final residual = 0.000146253, No Iterations 13
diagonal:  Solving for rho, Initial residual = 0, Final residual = 0, No Iterations 0
time step continuity errors : sum local = 5.2858e-06, global = -3.7324e-07, cumulative = 0.00246587
DICPCG:  Solving for p_rgh, Initial residual = 0.00438865, Final residual = 9.58307e-09, No Iterations 41
diagonal:  Solving for rho, Initial residual = 0, Final residual = 0, No Iterations 0
time step continuity errors : sum local = 3.73477e-07, global = -3.7324e-07, cumulative = 0.0024655
DILUPBiCGStab:  Solving for epsilon, Initial residual = 0.046776, Final residual = 1.30979e-07, No Iterations 2
DILUPBiCGStab:  Solving for k, Initial residual = 0.0564132, Final residual = 2.95837e-07, No Iterations 2
ExecutionTime = 0.7 s  ClockTime = 0 s

Courant Number mean: 0.274132 max: 0.536538
Time = 100

diagonal:  Solving for rho, Initial residual = 0, Final residual = 0, No Iterations 0
DILUPBiCGStab:  Solving for Ux, Initial residual = 0.0109847, Final residual = 1.03546e-07, No Iterations 2
DILUPBiCGStab:  Solving for Uy, Initial residual = 0.00971719, Final residual = 1.12896e-07, No Iterations 2
DILUPBiCGStab:  Solving for Uz, Initial residual = 0.0109847, Final residual = 1.03546e-07, No Iterations 2
DILUPBiCGStab:  Solving for e, Initial residual = 0.0158342, Final residual = 4.85175e-08, No Iterations 2
DICPCG:  Solving for p_rgh, Initial residual = 0.0169995, Final residual = 0.000164416, No Iterations 10
diagonal:  Solving for rho, Initial residual = 0, Final residual = 0, No Iterations 0
time step continuity errors : sum local = 5.73196e-06, global = -3.64346e-07, cumulative = 0.00246513
DICPCG:  Solving for p_rgh, Initial residual = 0.00424665, Final residual = 5.22607e-09, No Iterations 42
diagonal:  Solving for rho, Initial residual = 0, Final residual = 0, No Iterations 0
time step continuity errors : sum local = 3.64475e-07, global = -3.64346e-07, cumulative = 0.00246477
DILUPBiCGStab:  Solving for epsilon, Initial residual = 0.0461069, Final residual = 1.19342e-07, No Iterations 2
DILUPBiCGStab:  Solving for k, Initial residual = 0.0554461, Final residual = 2.68274e-07, No Iterations 2
ExecutionTime = 0.71 s  ClockTime = 0 s

Courant Number mean: 0.269118 max: 0.528126
Time = 102

diagonal:  Solving for rho, Initial residual = 0, Final residual = 0, No Iterations 0
DILUPBiCGStab:  Solving for Ux, Initial residual = 0.0109051, Final residual = 9.55205e-08, No Iterations 2
DILUPBiCGStab:  Solving for Uy, Initial residual = 0.00956973, Final residual = 1.03514e-07, No Iterations 2
DILUPBiCGStab:  Solving for Uz, Initial residual = 0.0109051, Final residual = 9.55205e-08, No Iterations 2
DILUPBiCGStab:  Solving for e, Initial residual = 0.0153982, Final residual = 2.88123e-08, No Iterations 2
DICPCG:  Solving for p_rgh, Initial residual = 0.0167187, Final residual = 0.000138162, No Iterations 10
diagonal:  Solving for rho, Initial residual = 0, Final residual = 0, No Iterations 0
time step continuity errors : sum local = 5.01623e-06, global = -3.55875e-07, cumulative = 0.00246441
DICPCG:  Solving for p_rgh, Initial residual = 0.00409246, Final residual = 9.84734e-09, No Iterations 41
diagonal:  Solving for rho, Initial residual = 0, Final residual = 0, No Iterations 0
time step continuity errors : sum local = 3.56117e-07, global = -3.55875e-07, cumulative = 0.00246406
DILUPBiCGStab:  Solving for epsilon, Initial residual = 0.0454574, Final residual = 1.09022e-07, No Iterations 2
DILUPBiCGStab:  Solving for k, Initial residual = 0.0545057, Final residual = 2.43624e-07, No Iterations 2
ExecutionTime = 0.73 s  ClockTime = 0 s

Courant Number mean: 0.264278 max: 0.519908
Time = 104

diagonal:  Solving for rho, Initial residual = 0, Final residual = 0, No Iterations 0
DILUPBiCGStab:  Solving for Ux, Initial residual = 0.0108457, Final residual = 8.81049e-08, No Iterations 2
DILUPBiCGStab:  Solving for Uy, Initial residual = 0.00943214, Final residual = 9.50576e-08, No Iterations 2
DILUPBiCGStab:  Solving for Uz, Initial residual = 0.0108457, Final residual = 8.81049e-08, No Iterations 2
DILUPBiCGStab:  Solving for e, Initial residual = 0.0150872, Final residual = 8.25106e-07, No Iterations 2
DICPCG:  Solving for p_rgh, Initial residual = 0.0162822, Final residual = 0.000125765, No Iterations 10
diagonal:  Solving for rho, Initial residual = 0, Final residual = 0, No Iterations 0
time step continuity errors : sum local = 4.64251e-06, global = -3.47577e-07, cumulative = 0.00246371
DICPCG:  Solving for p_rgh, Initial residual = 0.00396391, Final residual = 5.88056e-09, No Iterations 42
diagonal:  Solving for rho, Initial residual = 0, Final residual = 0, No Iterations 0
time step continuity errors : sum local = 3.4772e-07, global = -3.47577e-07, cumulative = 0.00246336
DILUPBiCGStab:  Solving for epsilon, Initial residual = 0.0448423, Final residual = 9.98928e-08, No Iterations 2
DILUPBiCGStab:  Solving for k, Initial residual = 0.0535889, Final residual = 2.21418e-07, No Iterations 2
ExecutionTime = 0.74 s  ClockTime = 0 s

Courant Number mean: 0.259643 max: 0.51377
Time = 106

diagonal:  Solving for rho, Initial residual = 0, Final residual = 0, No Iterations 0
DILUPBiCGStab:  Solving for Ux, Initial residual = 0.0107958, Final residual = 8.17331e-08, No Iterations 2
DILUPBiCGStab:  Solving for Uy, Initial residual = 0.0093063, Final residual = 8.7147e-08, No Iterations 2
DILUPBiCGStab:  Solving for Uz, Initial residual = 0.0107958, Final residual = 8.17331e-08, No Iterations 2
DILUPBiCGStab:  Solving for e, Initial residual = 0.0147658, Final residual = 6.23832e-07, No Iterations 2
DICPCG:  Solving for p_rgh, Initial residual = 0.0165309, Final residual = 0.000131316, No Iterations 10
diagonal:  Solving for rho, Initial residual = 0, Final residual = 0, No Iterations 0
time step continuity errors : sum local = 4.69332e-06, global = -3.39454e-07, cumulative = 0.00246302
DICPCG:  Solving for p_rgh, Initial residual = 0.00385342, Final residual = 5.36153e-09, No Iterations 42
diagonal:  Solving for rho, Initial residual = 0, Final residual = 0, No Iterations 0
time step continuity errors : sum local = 3.39585e-07, global = -3.39454e-07, cumulative = 0.00246268
DILUPBiCGStab:  Solving for epsilon, Initial residual = 0.0442091, Final residual = 9.19445e-08, No Iterations 2
DILUPBiCGStab:  Solving for k, Initial residual = 0.0526781, Final residual = 2.01804e-07, No Iterations 2
ExecutionTime = 0.75 s  ClockTime = 0 s

Courant Number mean: 0.255136 max: 0.528223
Time = 108

diagonal:  Solving for rho, Initial residual = 0, Final residual = 0, No Iterations 0
DILUPBiCGStab:  Solving for Ux, Initial residual = 0.0107307, Final residual = 7.59185e-08, No Iterations 2
DILUPBiCGStab:  Solving for Uy, Initial residual = 0.00921587, Final residual = 8.01158e-08, No Iterations 2
DILUPBiCGStab:  Solving for Uz, Initial residual = 0.0107307, Final residual = 7.59185e-08, No Iterations 2
DILUPBiCGStab:  Solving for e, Initial residual = 0.014703, Final residual = 5.43255e-07, No Iterations 2
DICPCG:  Solving for p_rgh, Initial residual = 0.0165012, Final residual = 0.000124399, No Iterations 10
diagonal:  Solving for rho, Initial residual = 0, Final residual = 0, No Iterations 0
time step continuity errors : sum local = 4.45651e-06, global = -3.31726e-07, cumulative = 0.00246235
DICPCG:  Solving for p_rgh, Initial residual = 0.0037866, Final residual = 5.719e-09, No Iterations 42
diagonal:  Solving for rho, Initial residual = 0, Final residual = 0, No Iterations 0
time step continuity errors : sum local = 3.31865e-07, global = -3.31726e-07, cumulative = 0.00246202
DILUPBiCGStab:  Solving for epsilon, Initial residual = 0.0435689, Final residual = 8.45932e-08, No Iterations 2
DILUPBiCGStab:  Solving for k, Initial residual = 0.0518048, Final residual = 1.84519e-07, No Iterations 2
ExecutionTime = 0.76 s  ClockTime = 0 s

Courant Number mean: 0.250764 max: 0.541756
Time = 110

diagonal:  Solving for rho, Initial residual = 0, Final residual = 0, No Iterations 0
DILUPBiCGStab:  Solving for Ux, Initial residual = 0.0107028, Final residual = 7.12859e-08, No Iterations 2
DILUPBiCGStab:  Solving for Uy, Initial residual = 0.00911799, Final residual = 7.39747e-08, No Iterations 2
DILUPBiCGStab:  Solving for Uz, Initial residual = 0.0107028, Final residual = 7.12859e-08, No Iterations 2
DILUPBiCGStab:  Solving for e, Initial residual = 0.0147798, Final residual = 4.84327e-07, No Iterations 2
DICPCG:  Solving for p_rgh, Initial residual = 0.0164706, Final residual = 0.000163953, No Iterations 9
diagonal:  Solving for rho, Initial residual = 0, Final residual = 0, No Iterations 0
time step continuity errors : sum local = 5.35869e-06, global = -3.23994e-07, cumulative = 0.0024617
DICPCG:  Solving for p_rgh, Initial residual = 0.00371472, Final residual = 6.16726e-09, No Iterations 42
diagonal:  Solving for rho, Initial residual = 0, Final residual = 0, No Iterations 0
time step continuity errors : sum local = 3.24143e-07, global = -3.23994e-07, cumulative = 0.00246137
DILUPBiCGStab:  Solving for epsilon, Initial residual = 0.0429355, Final residual = 7.78805e-08, No Iterations 2
DILUPBiCGStab:  Solving for k, Initial residual = 0.0509484, Final residual = 1.68591e-07, No Iterations 2
[...]
DILUPBiCGStab:  Solving for Ux, Initial residual = 0.000562718, Final residual = 6.52497e-07, No Iterations 1
DILUPBiCGStab:  Solving for Uy, Initial residual = 0.000583227, Final residual = 3.29277e-09, No Iterations 1
DILUPBiCGStab:  Solving for Uz, Initial residual = 0.000562718, Final residual = 6.52497e-07, No Iterations 1
DILUPBiCGStab:  Solving for e, Initial residual = 0.000990567, Final residual = 3.93691e-09, No Iterations 1
DICPCG:  Solving for p_rgh, Initial residual = 0.000698151, Final residual = 6.52511e-06, No Iterations 11
diagonal:  Solving for rho, Initial residual = 0, Final residual = 0, No Iterations 0
time step continuity errors : sum local = 2.00342e-07, global = -5.31135e-08, cumulative = 0.00227712
DICPCG:  Solving for p_rgh, Initial residual = 0.000103538, Final residual = 7.47237e-09, No Iterations 35
diagonal:  Solving for rho, Initial residual = 0, Final residual = 0, No Iterations 0
time step continuity errors : sum local = 5.32357e-08, global = -5.31135e-08, cumulative = 0.00227706
DILUPBiCGStab:  Solving for epsilon, Initial residual = 0.000150833, Final residual = 1.84103e-07, No Iterations 1
DILUPBiCGStab:  Solving for k, Initial residual = 0.00041428, Final residual = 9.75177e-07, No Iterations 1
ExecutionTime = 11.84 s  ClockTime = 12 s

Courant Number mean: 0.0788052 max: 0.512462
Time = 1976

diagonal:  Solving for rho, Initial residual = 0, Final residual = 0, No Iterations 0
DILUPBiCGStab:  Solving for Ux, Initial residual = 0.000561137, Final residual = 6.4903e-07, No Iterations 1
DILUPBiCGStab:  Solving for Uy, Initial residual = 0.000582082, Final residual = 3.28494e-09, No Iterations 1
DILUPBiCGStab:  Solving for Uz, Initial residual = 0.000561137, Final residual = 6.4903e-07, No Iterations 1
DILUPBiCGStab:  Solving for e, Initial residual = 0.000989784, Final residual = 4.03006e-09, No Iterations 1
DICPCG:  Solving for p_rgh, Initial residual = 0.000702552, Final residual = 6.52577e-06, No Iterations 11
diagonal:  Solving for rho, Initial residual = 0, Final residual = 0, No Iterations 0
time step continuity errors : sum local = 2.00449e-07, global = -5.3071e-08, cumulative = 0.00227701
DICPCG:  Solving for p_rgh, Initial residual = 0.000103359, Final residual = 7.35368e-09, No Iterations 35
diagonal:  Solving for rho, Initial residual = 0, Final residual = 0, No Iterations 0
time step continuity errors : sum local = 5.31912e-08, global = -5.3071e-08, cumulative = 0.00227696
DILUPBiCGStab:  Solving for epsilon, Initial residual = 0.000149574, Final residual = 1.83602e-07, No Iterations 1
DILUPBiCGStab:  Solving for k, Initial residual = 0.000412444, Final residual = 9.6727e-07, No Iterations 1
ExecutionTime = 11.85 s  ClockTime = 12 s

Courant Number mean: 0.0787883 max: 0.512429
Time = 1978

diagonal:  Solving for rho, Initial residual = 0, Final residual = 0, No Iterations 0
DILUPBiCGStab:  Solving for Ux, Initial residual = 0.000559737, Final residual = 6.45957e-07, No Iterations 1
DILUPBiCGStab:  Solving for Uy, Initial residual = 0.000581493, Final residual = 3.279e-09, No Iterations 1
DILUPBiCGStab:  Solving for Uz, Initial residual = 0.000559737, Final residual = 6.45957e-07, No Iterations 1
DILUPBiCGStab:  Solving for e, Initial residual = 0.000989052, Final residual = 4.12219e-09, No Iterations 1
DICPCG:  Solving for p_rgh, Initial residual = 0.000696258, Final residual = 6.51984e-06, No Iterations 11
diagonal:  Solving for rho, Initial residual = 0, Final residual = 0, No Iterations 0
time step continuity errors : sum local = 2.00048e-07, global = -5.30285e-08, cumulative = 0.0022769
DICPCG:  Solving for p_rgh, Initial residual = 0.000103236, Final residual = 7.3173e-09, No Iterations 35
diagonal:  Solving for rho, Initial residual = 0, Final residual = 0, No Iterations 0
time step continuity errors : sum local = 5.31481e-08, global = -5.30285e-08, cumulative = 0.00227685
DILUPBiCGStab:  Solving for epsilon, Initial residual = 0.000148376, Final residual = 1.82946e-07, No Iterations 1
DILUPBiCGStab:  Solving for k, Initial residual = 0.000410631, Final residual = 9.58949e-07, No Iterations 1
ExecutionTime = 11.87 s  ClockTime = 12 s

Courant Number mean: 0.0787712 max: 0.512393
Time = 1980

diagonal:  Solving for rho, Initial residual = 0, Final residual = 0, No Iterations 0
DILUPBiCGStab:  Solving for Ux, Initial residual = 0.000557701, Final residual = 6.42273e-07, No Iterations 1
DILUPBiCGStab:  Solving for Uy, Initial residual = 0.000580948, Final residual = 3.27778e-09, No Iterations 1
DILUPBiCGStab:  Solving for Uz, Initial residual = 0.000557701, Final residual = 6.42273e-07, No Iterations 1
DILUPBiCGStab:  Solving for e, Initial residual = 0.000988372, Final residual = 4.21192e-09, No Iterations 1
DICPCG:  Solving for p_rgh, Initial residual = 0.000698366, Final residual = 6.6326e-06, No Iterations 11
diagonal:  Solving for rho, Initial residual = 0, Final residual = 0, No Iterations 0
time step continuity errors : sum local = 2.01996e-07, global = -5.29861e-08, cumulative = 0.0022768
DICPCG:  Solving for p_rgh, Initial residual = 0.000103094, Final residual = 7.27867e-09, No Iterations 35
diagonal:  Solving for rho, Initial residual = 0, Final residual = 0, No Iterations 0
time step continuity errors : sum local = 5.31051e-08, global = -5.29861e-08, cumulative = 0.00227674
DILUPBiCGStab:  Solving for epsilon, Initial residual = 0.00014733, Final residual = 1.82137e-07, No Iterations 1
DILUPBiCGStab:  Solving for k, Initial residual = 0.000408827, Final residual = 9.50152e-07, No Iterations 1
ExecutionTime = 11.88 s  ClockTime = 12 s

Courant Number mean: 0.078754 max: 0.512355
Time = 1982

diagonal:  Solving for rho, Initial residual = 0, Final residual = 0, No Iterations 0
DILUPBiCGStab:  Solving for Ux, Initial residual = 0.000555568, Final residual = 6.38986e-07, No Iterations 1
DILUPBiCGStab:  Solving for Uy, Initial residual = 0.000580922, Final residual = 3.28847e-09, No Iterations 1
DILUPBiCGStab:  Solving for Uz, Initial residual = 0.000555568, Final residual = 6.38986e-07, No Iterations 1
DILUPBiCGStab:  Solving for e, Initial residual = 0.000987739, Final residual = 4.2977e-09, No Iterations 1
DICPCG:  Solving for p_rgh, Initial residual = 0.000693836, Final residual = 6.57079e-06, No Iterations 11
diagonal:  Solving for rho, Initial residual = 0, Final residual = 0, No Iterations 0
time step continuity errors : sum local = 2.00698e-07, global = -5.29441e-08, cumulative = 0.00227669
DICPCG:  Solving for p_rgh, Initial residual = 0.000102996, Final residual = 7.15382e-09, No Iterations 35
diagonal:  Solving for rho, Initial residual = 0, Final residual = 0, No Iterations 0
time step continuity errors : sum local = 5.30611e-08, global = -5.29441e-08, cumulative = 0.00227664
DILUPBiCGStab:  Solving for epsilon, Initial residual = 0.000146388, Final residual = 1.81327e-07, No Iterations 1
DILUPBiCGStab:  Solving for k, Initial residual = 0.000407036, Final residual = 9.40945e-07, No Iterations 1
ExecutionTime = 11.89 s  ClockTime = 12 s

Courant Number mean: 0.0787364 max: 0.512314
Time = 1984

diagonal:  Solving for rho, Initial residual = 0, Final residual = 0, No Iterations 0
DILUPBiCGStab:  Solving for Ux, Initial residual = 0.00055391, Final residual = 6.37227e-07, No Iterations 1
DILUPBiCGStab:  Solving for Uy, Initial residual = 0.000580586, Final residual = 3.30181e-09, No Iterations 1
DILUPBiCGStab:  Solving for Uz, Initial residual = 0.00055391, Final residual = 6.37227e-07, No Iterations 1
DILUPBiCGStab:  Solving for e, Initial residual = 0.000987168, Final residual = 4.37854e-09, No Iterations 1
DICPCG:  Solving for p_rgh, Initial residual = 0.00069145, Final residual = 6.48965e-06, No Iterations 11
diagonal:  Solving for rho, Initial residual = 0, Final residual = 0, No Iterations 0
time step continuity errors : sum local = 1.9938e-07, global = -5.29021e-08, cumulative = 0.00227659
DICPCG:  Solving for p_rgh, Initial residual = 0.00010283, Final residual = 7.04388e-09, No Iterations 35
diagonal:  Solving for rho, Initial residual = 0, Final residual = 0, No Iterations 0
time step continuity errors : sum local = 5.30173e-08, global = -5.29021e-08, cumulative = 0.00227653
DILUPBiCGStab:  Solving for epsilon, Initial residual = 0.000145425, Final residual = 1.80733e-07, No Iterations 1
DILUPBiCGStab:  Solving for k, Initial residual = 0.00040526, Final residual = 9.31275e-07, No Iterations 1
ExecutionTime = 11.9 s  ClockTime = 12 s

Courant Number mean: 0.0787187 max: 0.512272
Time = 1986

diagonal:  Solving for rho, Initial residual = 0, Final residual = 0, No Iterations 0
DILUPBiCGStab:  Solving for Ux, Initial residual = 0.000552438, Final residual = 6.35845e-07, No Iterations 1
DILUPBiCGStab:  Solving for Uy, Initial residual = 0.000580225, Final residual = 3.31398e-09, No Iterations 1
DILUPBiCGStab:  Solving for Uz, Initial residual = 0.000552438, Final residual = 6.35845e-07, No Iterations 1
DILUPBiCGStab:  Solving for e, Initial residual = 0.000986674, Final residual = 4.45478e-09, No Iterations 1
DICPCG:  Solving for p_rgh, Initial residual = 0.000696752, Final residual = 6.95745e-06, No Iterations 9
diagonal:  Solving for rho, Initial residual = 0, Final residual = 0, No Iterations 0
time step continuity errors : sum local = 2.07517e-07, global = -5.28598e-08, cumulative = 0.00227648
DICPCG:  Solving for p_rgh, Initial residual = 0.000103426, Final residual = 7.46835e-09, No Iterations 35
diagonal:  Solving for rho, Initial residual = 0, Final residual = 0, No Iterations 0
time step continuity errors : sum local = 5.29818e-08, global = -5.28598e-08, cumulative = 0.00227643
DILUPBiCGStab:  Solving for epsilon, Initial residual = 0.000144491, Final residual = 1.80093e-07, No Iterations 1
DILUPBiCGStab:  Solving for k, Initial residual = 0.000403482, Final residual = 9.21201e-07, No Iterations 1
ExecutionTime = 11.91 s  ClockTime = 12 s

Courant Number mean: 0.0787008 max: 0.512227
Time = 1988

diagonal:  Solving for rho, Initial residual = 0, Final residual = 0, No Iterations 0
DILUPBiCGStab:  Solving for Ux, Initial residual = 0.000551464, Final residual = 6.34724e-07, No Iterations 1
DILUPBiCGStab:  Solving for Uy, Initial residual = 0.000579187, Final residual = 3.32551e-09, No Iterations 1
DILUPBiCGStab:  Solving for Uz, Initial residual = 0.000551464, Final residual = 6.34724e-07, No Iterations 1
DILUPBiCGStab:  Solving for e, Initial residual = 0.000986189, Final residual = 4.52522e-09, No Iterations 1
DICPCG:  Solving for p_rgh, Initial residual = 0.000694561, Final residual = 6.41768e-06, No Iterations 11
diagonal:  Solving for rho, Initial residual = 0, Final residual = 0, No Iterations 0
time step continuity errors : sum local = 1.98071e-07, global = -5.28167e-08, cumulative = 0.00227637
DICPCG:  Solving for p_rgh, Initial residual = 0.000102731, Final residual = 6.76677e-09, No Iterations 35
diagonal:  Solving for rho, Initial residual = 0, Final residual = 0, No Iterations 0
time step continuity errors : sum local = 5.29274e-08, global = -5.28167e-08, cumulative = 0.00227632
DILUPBiCGStab:  Solving for epsilon, Initial residual = 0.000143808, Final residual = 1.79438e-07, No Iterations 1
DILUPBiCGStab:  Solving for k, Initial residual = 0.000401736, Final residual = 9.10774e-07, No Iterations 1
ExecutionTime = 11.92 s  ClockTime = 12 s

Courant Number mean: 0.0786827 max: 0.512181
Time = 1990

diagonal:  Solving for rho, Initial residual = 0, Final residual = 0, No Iterations 0
DILUPBiCGStab:  Solving for Ux, Initial residual = 0.000550266, Final residual = 6.33919e-07, No Iterations 1
DILUPBiCGStab:  Solving for Uy, Initial residual = 0.000578565, Final residual = 3.35204e-09, No Iterations 1
DILUPBiCGStab:  Solving for Uz, Initial residual = 0.000550266, Final residual = 6.33919e-07, No Iterations 1
DILUPBiCGStab:  Solving for e, Initial residual = 0.000985781, Final residual = 4.58989e-09, No Iterations 1
DICPCG:  Solving for p_rgh, Initial residual = 0.000691897, Final residual = 6.41942e-06, No Iterations 11
diagonal:  Solving for rho, Initial residual = 0, Final residual = 0, No Iterations 0
time step continuity errors : sum local = 1.97957e-07, global = -5.27725e-08, cumulative = 0.00227627
DICPCG:  Solving for p_rgh, Initial residual = 0.00010258, Final residual = 6.72834e-09, No Iterations 35
diagonal:  Solving for rho, Initial residual = 0, Final residual = 0, No Iterations 0
time step continuity errors : sum local = 5.28826e-08, global = -5.27725e-08, cumulative = 0.00227622
DILUPBiCGStab:  Solving for epsilon, Initial residual = 0.000143357, Final residual = 1.78791e-07, No Iterations 1
DILUPBiCGStab:  Solving for k, Initial residual = 0.000399983, Final residual = 8.99969e-07, No Iterations 1
ExecutionTime = 11.93 s  ClockTime = 12 s

Courant Number mean: 0.0786642 max: 0.512133
Time = 1992

diagonal:  Solving for rho, Initial residual = 0, Final residual = 0, No Iterations 0
DILUPBiCGStab:  Solving for Ux, Initial residual = 0.000549083, Final residual = 6.32971e-07, No Iterations 1
DILUPBiCGStab:  Solving for Uy, Initial residual = 0.000578205, Final residual = 3.38073e-09, No Iterations 1
DILUPBiCGStab:  Solving for Uz, Initial residual = 0.000549083, Final residual = 6.32971e-07, No Iterations 1
DILUPBiCGStab:  Solving for e, Initial residual = 0.000985411, Final residual = 4.65018e-09, No Iterations 1
DICPCG:  Solving for p_rgh, Initial residual = 0.000691273, Final residual = 6.35172e-06, No Iterations 11
diagonal:  Solving for rho, Initial residual = 0, Final residual = 0, No Iterations 0
time step continuity errors : sum local = 1.96731e-07, global = -5.27292e-08, cumulative = 0.00227616
DICPCG:  Solving for p_rgh, Initial residual = 0.000102493, Final residual = 6.73459e-09, No Iterations 35
diagonal:  Solving for rho, Initial residual = 0, Final residual = 0, No Iterations 0
time step continuity errors : sum local = 5.28394e-08, global = -5.27292e-08, cumulative = 0.00227611
DILUPBiCGStab:  Solving for epsilon, Initial residual = 0.000143079, Final residual = 1.78216e-07, No Iterations 1
DILUPBiCGStab:  Solving for k, Initial residual = 0.000398215, Final residual = 8.88812e-07, No Iterations 1
ExecutionTime = 11.94 s  ClockTime = 12 s

Courant Number mean: 0.0786453 max: 0.512083
Time = 1994

diagonal:  Solving for rho, Initial residual = 0, Final residual = 0, No Iterations 0
DILUPBiCGStab:  Solving for Ux, Initial residual = 0.000547982, Final residual = 6.32057e-07, No Iterations 1
DILUPBiCGStab:  Solving for Uy, Initial residual = 0.000577897, Final residual = 3.40752e-09, No Iterations 1
DILUPBiCGStab:  Solving for Uz, Initial residual = 0.000547982, Final residual = 6.32057e-07, No Iterations 1
DILUPBiCGStab:  Solving for e, Initial residual = 0.000985046, Final residual = 4.70557e-09, No Iterations 1
DICPCG:  Solving for p_rgh, Initial residual = 0.000690456, Final residual = 6.45191e-06, No Iterations 11
diagonal:  Solving for rho, Initial residual = 0, Final residual = 0, No Iterations 0
time step continuity errors : sum local = 1.98231e-07, global = -5.26873e-08, cumulative = 0.00227606
DICPCG:  Solving for p_rgh, Initial residual = 0.000102544, Final residual = 6.69014e-09, No Iterations 35
diagonal:  Solving for rho, Initial residual = 0, Final residual = 0, No Iterations 0
time step continuity errors : sum local = 5.27968e-08, global = -5.26873e-08, cumulative = 0.00227601
DILUPBiCGStab:  Solving for epsilon, Initial residual = 0.000142989, Final residual = 1.77772e-07, No Iterations 1
DILUPBiCGStab:  Solving for k, Initial residual = 0.000396437, Final residual = 8.77348e-07, No Iterations 1
ExecutionTime = 11.96 s  ClockTime = 12 s

Courant Number mean: 0.0786263 max: 0.512031
Time = 1996

diagonal:  Solving for rho, Initial residual = 0, Final residual = 0, No Iterations 0
DILUPBiCGStab:  Solving for Ux, Initial residual = 0.000546511, Final residual = 6.31004e-07, No Iterations 1
DILUPBiCGStab:  Solving for Uy, Initial residual = 0.000578005, Final residual = 3.43331e-09, No Iterations 1
DILUPBiCGStab:  Solving for Uz, Initial residual = 0.000546511, Final residual = 6.31004e-07, No Iterations 1
DILUPBiCGStab:  Solving for e, Initial residual = 0.00098469, Final residual = 4.75667e-09, No Iterations 1
DICPCG:  Solving for p_rgh, Initial residual = 0.000690929, Final residual = 6.35573e-06, No Iterations 11
diagonal:  Solving for rho, Initial residual = 0, Final residual = 0, No Iterations 0
time step continuity errors : sum local = 1.96603e-07, global = -5.26472e-08, cumulative = 0.00227595
DICPCG:  Solving for p_rgh, Initial residual = 0.000102516, Final residual = 6.18621e-09, No Iterations 35
diagonal:  Solving for rho, Initial residual = 0, Final residual = 0, No Iterations 0
time step continuity errors : sum local = 5.27484e-08, global = -5.26472e-08, cumulative = 0.0022759
DILUPBiCGStab:  Solving for epsilon, Initial residual = 0.000143054, Final residual = 1.77576e-07, No Iterations 1
DILUPBiCGStab:  Solving for k, Initial residual = 0.000394735, Final residual = 8.65646e-07, No Iterations 1
ExecutionTime = 11.97 s  ClockTime = 12 s

Courant Number mean: 0.078607 max: 0.511978
Time = 1998

diagonal:  Solving for rho, Initial residual = 0, Final residual = 0, No Iterations 0
DILUPBiCGStab:  Solving for Ux, Initial residual = 0.000545412, Final residual = 6.30259e-07, No Iterations 1
DILUPBiCGStab:  Solving for Uy, Initial residual = 0.000577935, Final residual = 3.45594e-09, No Iterations 1
DILUPBiCGStab:  Solving for Uz, Initial residual = 0.000545412, Final residual = 6.30259e-07, No Iterations 1
DILUPBiCGStab:  Solving for e, Initial residual = 0.000984387, Final residual = 4.8066e-09, No Iterations 1
DICPCG:  Solving for p_rgh, Initial residual = 0.00068613, Final residual = 6.42303e-06, No Iterations 11
diagonal:  Solving for rho, Initial residual = 0, Final residual = 0, No Iterations 0
time step continuity errors : sum local = 1.97603e-07, global = -5.26068e-08, cumulative = 0.00227585
DICPCG:  Solving for p_rgh, Initial residual = 0.000102518, Final residual = 6.39081e-09, No Iterations 35
diagonal:  Solving for rho, Initial residual = 0, Final residual = 0, No Iterations 0
time step continuity errors : sum local = 5.27114e-08, global = -5.26068e-08, cumulative = 0.00227579
DILUPBiCGStab:  Solving for epsilon, Initial residual = 0.000143096, Final residual = 1.77578e-07, No Iterations 1
DILUPBiCGStab:  Solving for k, Initial residual = 0.000393113, Final residual = 8.53724e-07, No Iterations 1
ExecutionTime = 11.98 s  ClockTime = 12 s

Courant Number mean: 0.0785874 max: 0.511922
Time = 2000

diagonal:  Solving for rho, Initial residual = 0, Final residual = 0, No Iterations 0
DILUPBiCGStab:  Solving for Ux, Initial residual = 0.000544326, Final residual = 6.29753e-07, No Iterations 1
DILUPBiCGStab:  Solving for Uy, Initial residual = 0.000577868, Final residual = 3.48009e-09, No Iterations 1
DILUPBiCGStab:  Solving for Uz, Initial residual = 0.000544326, Final residual = 6.29753e-07, No Iterations 1
DILUPBiCGStab:  Solving for e, Initial residual = 0.000984074, Final residual = 4.85123e-09, No Iterations 1
DICPCG:  Solving for p_rgh, Initial residual = 0.000687004, Final residual = 6.40485e-06, No Iterations 11
diagonal:  Solving for rho, Initial residual = 0, Final residual = 0, No Iterations 0
time step continuity errors : sum local = 1.97228e-07, global = -5.2566e-08, cumulative = 0.00227574
DICPCG:  Solving for p_rgh, Initial residual = 0.00010252, Final residual = 6.31042e-09, No Iterations 35
diagonal:  Solving for rho, Initial residual = 0, Final residual = 0, No Iterations 0
time step continuity errors : sum local = 5.26693e-08, global = -5.2566e-08, cumulative = 0.00227569
DILUPBiCGStab:  Solving for epsilon, Initial residual = 0.00014327, Final residual = 1.77709e-07, No Iterations 1
DILUPBiCGStab:  Solving for k, Initial residual = 0.000391586, Final residual = 8.41605e-07, No Iterations 1
ExecutionTime = 12.01 s  ClockTime = 12 s

End

